# Code_Saturne plot output (1D profile)
#
# Iteration output: 4407
# Time output:      2.30008e+01
#
#COLUMN_TITLES: Distance | X | Y | Z | diameter_Field2 | temp_Field1 | temp_Field2 | Velocity_Field1[Z] | Velocity_Field2[Z] | vol_f_Field2 | mass_trans_Field1 | Xd_Field2 | BK | COAL | COMP | NUCL | W1 | MT | SMBR | ALPBB | CONDNUM | GAMA | GAMANUC | epsilon_Field1
 4.56474e-03  1.39645e-04  0.00000e+00  3.47944e+00  8.23090e-05  3.59863e+02  3.60056e+02  4.86769e+00  4.88351e+00  1.02576e-01  9.28346e+01  4.23324e+02  1.09008e+01 -1.29299e+06  2.73848e+03  0.00000e+00 -1.29024e+06  1.76377e+05 -1.11386e+06  1.02596e-01  1.00000e+00 -9.23215e+01  0.00000e+00  5.67528e-01 
 4.57812e-03  3.76525e-04  4.25872e-21  3.47944e+00  1.15018e-04  3.59862e+02  3.60056e+02  4.86704e+00  4.89124e+00  1.03632e-01  5.96009e+01  3.02938e+02  3.03316e+03 -7.38396e+05  1.96140e+03  0.00000e+00 -7.33401e+05  8.02082e+04 -6.53193e+05  1.03641e-01  1.00000e+00 -5.92685e+01  0.00000e+00  5.75132e-01 
 4.60371e-03  6.13858e-04  0.00000e+00  3.47944e+00  1.41276e-04  3.59863e+02  3.60056e+02  4.86541e+00  4.89629e+00  1.05611e-01  4.60634e+01  2.46632e+02  2.10514e+04 -5.32281e+05  1.59843e+03  0.00000e+00 -5.09631e+05  4.95229e+04 -4.60108e+05  1.05615e-01  1.00000e+00 -4.58049e+01  0.00000e+00  5.89915e-01 
 4.64138e-03  8.51483e-04  0.00000e+00  3.47944e+00  1.61712e-04  3.59865e+02  3.60056e+02  4.86307e+00  4.89902e+00  1.08464e-01  3.93618e+01  2.15466e+02  5.03961e+04 -4.37984e+05  1.39752e+03  0.00000e+00 -3.86190e+05  3.59970e+04 -3.50193e+05  1.08466e-01  1.00000e+00 -3.91388e+01  0.00000e+00  6.12143e-01 
 4.69084e-03  1.08931e-03  0.00000e+00  3.47944e+00  1.77680e-04  3.59867e+02  3.60055e+02  4.85992e+00  4.89969e+00  1.12229e-01  3.56613e+01  1.96102e+02  8.15887e+04 -3.90858e+05  1.27257e+03  0.00000e+00 -3.07996e+05  2.86848e+04 -2.79312e+05  1.12229e-01  1.00000e+00 -3.54565e+01  0.00000e+00  6.42204e-01 
 4.75174e-03  1.32727e-03  1.05001e-20  3.47944e+00  1.90226e-04  3.59871e+02  3.60055e+02  4.85593e+00  4.89855e+00  1.16911e-01  3.35213e+01  1.83168e+02  1.11196e+05 -3.68346e+05  1.18895e+03  0.00000e+00 -2.55961e+05  2.41741e+04 -2.31787e+05  1.16911e-01  1.00000e+00 -3.33252e+01  0.00000e+00  6.80744e-01 
 4.82366e-03  1.56534e-03  0.00000e+00  3.47944e+00  2.00303e-04  3.59876e+02  3.60055e+02  4.85103e+00  4.89576e+00  1.22535e-01  3.22513e+01  1.73953e+02  1.39327e+05 -3.60440e+05  1.12918e+03  0.00000e+00 -2.19984e+05  2.10716e+04 -1.98913e+05  1.22535e-01  1.00000e+00 -3.20581e+01  0.00000e+00  7.28593e-01 
 4.90611e-03  1.80349e-03  8.81027e-21  3.47944e+00  2.08717e-04  3.59881e+02  3.60055e+02  4.84513e+00  4.89146e+00  1.29104e-01  3.14635e+01  1.66941e+02  1.66906e+05 -3.61970e+05  1.08349e+03  0.00000e+00 -1.93980e+05  1.87210e+04 -1.75259e+05  1.29105e-01  1.00000e+00 -3.12694e+01  0.00000e+00  7.86809e-01 
 4.99859e-03  2.04170e-03  0.00000e+00  3.47944e+00  2.16106e-04  3.59888e+02  3.60055e+02  4.83813e+00  4.88570e+00  1.36623e-01  3.09193e+01  1.61233e+02  1.94666e+05 -3.69988e+05  1.04607e+03  0.00000e+00 -1.74276e+05  1.67865e+04 -1.57490e+05  1.36624e-01  1.00000e+00 -3.07216e+01  0.00000e+00  8.56647e-01 
 5.10055e-03  2.27996e-03  7.58893e-21  3.47944e+00  2.22960e-04  3.59896e+02  3.60055e+02  4.82988e+00  4.87848e+00  1.45065e-01  3.04552e+01  1.56276e+02  2.22945e+05 -3.82571e+05  1.01334e+03  0.00000e+00 -1.58612e+05  1.50895e+04 -1.43523e+05  1.45067e-01  1.00000e+00 -3.02523e+01  0.00000e+00  9.39588e-01 
 5.21143e-03  2.51826e-03  7.09702e-21  3.47944e+00  2.29651e-04  3.59904e+02  3.60055e+02  4.82023e+00  4.86974e+00  1.54399e-01  2.99568e+01  1.51723e+02  2.51690e+05 -3.98341e+05  9.83061e+02  0.00000e+00 -1.45668e+05  1.35345e+04 -1.32133e+05  1.54402e-01  1.00000e+00 -2.97476e+01  0.00000e+00  1.03729e+00 
 5.33068e-03  2.75659e-03  1.33300e-20  3.47944e+00  2.36454e-04  3.59913e+02  3.60055e+02  4.80900e+00  4.85935e+00  1.64549e-01  2.93375e+01  1.47358e+02  2.80557e+05 -4.16115e+05  9.53798e+02  0.00000e+00 -1.34604e+05  1.20745e+04 -1.22529e+05  1.64555e-01  1.00000e+00 -2.91213e+01  0.00000e+00  1.15162e+00 
 5.45775e-03  2.99495e-03  1.25651e-20  3.47944e+00  2.43575e-04  3.59922e+02  3.60055e+02  4.79598e+00  4.84716e+00  1.75431e-01  2.85383e+01  1.43050e+02  3.08978e+05 -4.34862e+05  9.24708e+02  0.00000e+00 -1.24959e+05  1.06899e+04 -1.14269e+05  1.75440e-01  1.00000e+00 -2.83151e+01  0.00000e+00  1.28456e+00 
 5.59212e-03  3.23333e-03  0.00000e+00  3.47944e+00  2.51146e-04  3.59932e+02  3.60055e+02  4.78095e+00  4.83297e+00  1.86886e-01  2.75197e+01  1.38738e+02  3.36308e+05 -4.53544e+05  8.95388e+02  0.00000e+00 -1.16341e+05  9.37973e+03 -1.06961e+05  1.86896e-01  1.00000e+00 -2.72898e+01  0.00000e+00  1.43821e+00 
 5.73326e-03  3.47172e-03  0.00000e+00  3.47944e+00  2.59243e-04  3.59942e+02  3.60055e+02  4.76370e+00  4.81659e+00  1.98860e-01  2.62790e+01  1.34405e+02  3.61822e+05 -4.71518e+05  8.65652e+02  0.00000e+00 -1.08831e+05  8.14952e+03 -1.00681e+05  1.98869e-01  1.00000e+00 -2.60428e+01  0.00000e+00  1.61457e+00 
 5.88069e-03  3.71014e-03 -5.35987e-21  3.47944e+00  2.67869e-04  3.59952e+02  3.60055e+02  4.74404e+00  4.79782e+00  2.11133e-01  2.48184e+01  1.30076e+02  3.85104e+05 -4.88020e+05  8.35537e+02  0.00000e+00 -1.02081e+05  7.01050e+03 -9.50704e+04  2.11140e-01  1.00000e+00 -2.45768e+01  0.00000e+00  1.81638e+00 
 6.03395e-03  3.94857e-03  5.10973e-21  3.47944e+00  2.76965e-04  3.59962e+02  3.60055e+02  4.72177e+00  4.77649e+00  2.23562e-01  2.31673e+01  1.25805e+02  4.05629e+05 -5.02592e+05  8.05592e+02  0.00000e+00 -9.61580e+04  5.97195e+03 -9.01860e+04  2.23569e-01  1.00000e+00 -2.29212e+01  0.00000e+00  2.04487e+00 
 6.19261e-03  4.18701e-03  0.00000e+00  3.47944e+00  2.86388e-04  3.59972e+02  3.60055e+02  4.69683e+00  4.75248e+00  2.35871e-01  2.13556e+01  1.21666e+02  4.23430e+05 -5.14874e+05  7.76126e+02  0.00000e+00 -9.06682e+04  5.04066e+03 -8.56275e+04  2.35876e-01  1.00000e+00 -2.11059e+01  0.00000e+00  2.30232e+00 
 6.35626e-03  4.42546e-03  0.00000e+00  3.47944e+00  2.95959e-04  3.59982e+02  3.60055e+02  4.66911e+00  4.72566e+00  2.48033e-01  1.94433e+01  1.17731e+02  4.38614e+05 -5.25219e+05  7.47859e+02  0.00000e+00 -8.58571e+04  4.21758e+03 -8.16395e+04  2.48038e-01  1.00000e+00 -1.91907e+01  0.00000e+00  2.59084e+00 
 6.52453e-03  4.66392e-03 -8.96437e-21  3.47944e+00  3.05433e-04  3.59992e+02  3.60055e+02  4.63860e+00  4.69599e+00  2.59964e-01  1.74736e+01  1.14080e+02  4.51652e+05 -5.34114e+05  7.21161e+02  0.00000e+00 -8.17414e+04  3.49851e+03 -7.82429e+04  2.59970e-01  1.00000e+00 -1.72187e+01  0.00000e+00  2.91319e+00 
 6.69707e-03  4.90238e-03  1.72236e-20  3.47944e+00  3.14536e-04  3.60002e+02  3.60056e+02  4.60529e+00  4.66343e+00  2.71579e-01  1.54858e+01  1.10778e+02  4.63123e+05 -5.42144e+05  6.96507e+02  0.00000e+00 -7.83247e+04  2.87611e+03 -7.54486e+04  2.71585e-01  1.00000e+00 -1.52287e+01  0.00000e+00  3.27164e+00 
 6.87356e-03  5.14086e-03  8.28595e-21  3.47944e+00  3.22956e-04  3.60011e+02  3.60056e+02  4.56920e+00  4.62792e+00  2.82728e-01  1.35033e+01  1.07891e+02  4.74021e+05 -5.50026e+05  6.73966e+02  0.00000e+00 -7.53307e+04  2.34000e+03 -7.29907e+04  2.82733e-01  1.00000e+00 -1.32438e+01  0.00000e+00  3.67109e+00 
 7.05370e-03  5.37934e-03 -1.59677e-20  3.47944e+00  3.30425e-04  3.60021e+02  3.60056e+02  4.53026e+00  4.58938e+00  2.93462e-01  1.15460e+01  1.05452e+02  4.84991e+05 -5.58682e+05  6.54085e+02  0.00000e+00 -7.30372e+04  1.87737e+03 -7.11598e+04  2.93467e-01  1.00000e+00 -1.12838e+01  0.00000e+00  4.11445e+00 
 7.23722e-03  5.61783e-03  0.00000e+00  3.47944e+00  3.36668e-04  3.60030e+02  3.60056e+02  4.48843e+00  4.54768e+00  3.03719e-01  9.61385e+00  1.03497e+02  4.97112e+05 -5.69035e+05  6.36861e+02  0.00000e+00 -7.12858e+04  1.47495e+03 -6.98108e+04  3.03723e-01  1.00000e+00 -9.34821e+00  0.00000e+00  4.60994e+00 
 7.42387e-03  5.85632e-03  0.00000e+00  3.47944e+00  3.41497e-04  3.60039e+02  3.60056e+02  4.44346e+00  4.50259e+00  3.13564e-01  7.70134e+00  1.02034e+02  5.11056e+05 -5.81989e+05  6.22422e+02  0.00000e+00 -7.03105e+04  1.11963e+03 -6.91909e+04  3.13569e-01  1.00000e+00 -7.43122e+00  0.00000e+00  5.16395e+00 
 7.61342e-03  6.09482e-03  0.00000e+00  3.47944e+00  3.44721e-04  3.60047e+02  3.60056e+02  4.39525e+00  4.45392e+00  3.22943e-01  5.78851e+00  1.01080e+02  5.27929e+05 -5.98487e+05  6.10616e+02  0.00000e+00 -6.99479e+04  7.98915e+02 -6.91490e+04  3.22947e-01  1.00000e+00 -5.51270e+00  0.00000e+00  5.79002e+00 
 7.80566e-03  6.33332e-03  0.00000e+00  3.47944e+00  3.46270e-04  3.60056e+02  3.60056e+02  4.34325e+00  4.40115e+00  3.31995e-01  3.84929e+00  1.00628e+02  5.48278e+05 -6.19514e+05  6.01453e+02  0.00000e+00 -7.06348e+04  5.00493e+02 -7.01343e+04  3.32000e-01  1.00000e+00 -3.56625e+00  0.00000e+00  6.49883e+00 
 8.00039e-03  6.57182e-03  0.00000e+00  3.47944e+00  3.46024e-04  3.60064e+02  3.60057e+02  4.28747e+00  4.34423e+00  3.40631e-01  1.84714e+00  1.00700e+02  5.73510e+05 -6.46205e+05  5.94711e+02  0.00000e+00 -7.20998e+04  2.12872e+02 -7.18869e+04  3.40637e-01  1.00000e+00 -1.55516e+00  0.00000e+00  7.31491e+00 
 8.19744e-03  6.81033e-03  1.31016e-20  3.47944e+00  3.44011e-04  3.60073e+02  3.60057e+02  4.22661e+00  4.28193e+00  3.49020e-01 -6.87875e-01  1.01290e+02  6.04240e+05 -6.79781e+05  5.90345e+02  0.00000e+00 -7.49512e+04 -1.81447e+02 -7.51327e+04  3.49029e-01  1.00000e+00  1.35034e+00  0.00000e+00  8.25671e+00 
 8.39664e-03  7.04884e-03  0.00000e+00  3.47944e+00  3.40131e-04  3.60081e+02  3.60057e+02  4.16138e+00  4.21489e+00  3.57094e-01 -5.85391e+00  1.02446e+02  6.42566e+05 -7.22175e+05  5.88323e+02  0.00000e+00 -7.90209e+04 -8.69332e+02 -7.98902e+04  3.57103e-01  1.00000e+00  6.54458e+00  0.00000e+00  9.36905e+00 
 8.59784e-03  7.28736e-03  0.00000e+00  3.47944e+00  3.34390e-04  3.60090e+02  3.60057e+02  4.08839e+00  4.13980e+00  3.65025e-01 -1.17515e+01  1.04206e+02  6.89973e+05 -7.75814e+05  5.88232e+02  0.00000e+00 -8.52529e+04 -1.64909e+03 -8.69019e+04  3.65037e-01  1.00000e+00  1.24763e+01  0.00000e+00  1.06920e+01 
 8.80092e-03  7.52587e-03  0.00000e+00  3.47944e+00  3.26562e-04  3.60099e+02  3.60058e+02  4.01110e+00  4.06008e+00  3.72671e-01 -1.88556e+01  1.06704e+02  7.50817e+05 -8.44906e+05  5.90620e+02  0.00000e+00 -9.34978e+04 -2.60133e+03 -9.60991e+04  3.72684e-01  1.00000e+00  1.96223e+01  0.00000e+00  1.23224e+01 
 9.00573e-03  7.76439e-03 -1.17014e-20  3.47944e+00  3.16655e-04  3.60109e+02  3.60058e+02  3.91962e+00  3.96583e+00  3.80344e-01 -2.79657e+01  1.10043e+02  8.28003e+05 -9.34883e+05  5.95625e+02  0.00000e+00 -1.06285e+05 -3.85587e+03 -1.10141e+05  3.80361e-01  1.00000e+00  2.87837e+01  0.00000e+00  1.43334e+01 
 9.21216e-03  8.00291e-03  0.00000e+00  3.47944e+00  3.04288e-04  3.60122e+02  3.60058e+02  3.82587e+00  3.86894e+00  3.87846e-01 -4.04715e+01  1.14517e+02  9.32273e+05 -1.05597e+06  6.03961e+02  0.00000e+00 -1.23097e+05 -5.65356e+03 -1.28751e+05  3.87864e-01  1.00000e+00  4.13546e+01  0.00000e+00  1.69919e+01 
 9.42012e-03  8.24144e-03  0.00000e+00  3.47944e+00  2.89439e-04  3.60138e+02  3.60059e+02  3.70315e+00  3.74280e+00  3.95505e-01 -5.90186e+01  1.20393e+02  1.07219e+06 -1.22227e+06  6.14927e+02  0.00000e+00 -1.49457e+05 -8.45420e+03 -1.57911e+05  3.95529e-01  1.00000e+00  5.99841e+01  0.00000e+00  2.04970e+01 
 9.62949e-03  8.47996e-03  0.00000e+00  3.47944e+00  2.71463e-04  3.60161e+02  3.60059e+02  3.57946e+00  3.61464e+00  4.03194e-01 -8.91947e+01  1.28366e+02  1.27726e+06 -1.46394e+06  6.32847e+02  0.00000e+00 -1.86050e+05 -1.33068e+04 -1.99357e+05  4.03219e-01  1.00000e+00  9.02699e+01  0.00000e+00  2.56350e+01 
 9.84019e-03  8.71849e-03  0.00000e+00  3.47944e+00  2.50202e-04  3.60197e+02  3.60060e+02  3.39542e+00  3.42685e+00  4.10991e-01 -1.44050e+02  1.39275e+02  1.58370e+06 -1.83010e+06  6.52119e+02  0.00000e+00 -2.45744e+05 -2.27941e+04 -2.68538e+05  4.11022e-01  1.00000e+00  1.45272e+02  0.00000e+00  3.32600e+01 
 1.00521e-02  8.95702e-03  0.00000e+00  3.47944e+00  2.24313e-04  3.60261e+02  3.60060e+02  3.21432e+00  3.24243e+00  4.18957e-01 -2.62588e+02  1.55352e+02  2.12687e+06 -2.44916e+06  6.81580e+02  0.00000e+00 -3.21610e+05 -4.53333e+04 -3.66943e+05  4.18987e-01  1.00000e+00  2.64030e+02  0.00000e+00  4.74789e+01 
 1.02653e-02  9.19555e-03  0.00000e+00  3.47944e+00  1.93852e-04  3.60406e+02  3.60061e+02  2.88274e+00  2.90721e+00  4.27575e-01 -5.88336e+02  1.79766e+02  3.19989e+06 -3.58239e+06  7.02405e+02  0.00000e+00 -3.81807e+05 -1.14874e+05 -4.96681e+05  4.27613e-01  1.00000e+00  5.90110e+02  0.00000e+00  7.86193e+01 
 1.04795e-02  9.43408e-03  0.00000e+00  3.47944e+00  1.59638e-04  3.60889e+02  3.60062e+02  2.40917e+00  2.42474e+00  4.39495e-01 -5.36956e+03  2.18297e+02  6.08901e+06 -5.71192e+06  7.37189e+02  1.95502e+06  2.33284e+06 -2.35540e+06 -2.25603e+04  4.39518e-01  1.00000e+00  5.37188e+03  3.38303e+03  1.98561e+02 
