# Code_Saturne plot output (1D profile)
#
# Iteration output: 2470
# Time output:      2.30018e+01
#
#COLUMN_TITLES: Distance | X | Y | Z | diameter_Field2 | temp_Field1 | temp_Field2 | Velocity_Field1[Z] | Velocity_Field2[Z] | vol_f_Field2 | mass_trans_Field1 | Xd_Field2 | BK | COAL | COMP | NUCL | W1 | MT | SMBR | ALPBB | CONDNUM | GAMA | GAMANUC | epsilon_Field1
 4.56474e-03  1.39645e-04  0.00000e+00  3.47944e+00  3.51018e-04  3.59975e+02  3.60057e+02  5.14700e+00  5.22423e+00  2.13069e-01  1.40395e+01  9.92499e+01  2.07453e+05 -5.43151e+05  7.77195e+02  0.00000e+00 -3.34921e+05  3.24543e+03 -3.31676e+05  2.13062e-01  1.00000e+00 -1.40391e+01  0.00000e+00  1.52477e+00 
 4.57812e-03  3.76525e-04  4.25872e-21  3.47944e+00  3.81197e-04  3.59976e+02  3.60057e+02  5.14466e+00  5.22950e+00  2.13882e-01  1.25536e+01  9.13922e+01  1.94004e+05 -4.68586e+05  7.16315e+02  0.00000e+00 -2.73866e+05  2.66203e+03 -2.71204e+05  2.13875e-01  1.00000e+00 -1.25533e+01  0.00000e+00  1.54015e+00 
 4.60371e-03  6.13858e-04  0.00000e+00  3.47944e+00  4.04990e-04  3.59977e+02  3.60057e+02  5.14143e+00  5.23150e+00  2.15303e-01  1.15103e+01  8.60231e+01  1.84905e+05 -4.22483e+05  6.74667e+02  0.00000e+00 -2.36903e+05  2.28224e+03 -2.34620e+05  2.15296e-01  1.00000e+00 -1.15100e+01  0.00000e+00  1.56961e+00 
 4.64138e-03  8.51483e-04  0.00000e+00  3.47944e+00  4.27210e-04  3.59979e+02  3.60057e+02  5.13718e+00  5.22942e+00  2.17125e-01  1.05521e+01  8.15487e+01  1.77623e+05 -3.86921e+05  6.39730e+02  0.00000e+00 -2.08658e+05  1.96677e+03 -2.06691e+05  2.17119e-01  1.00000e+00 -1.05518e+01  0.00000e+00  1.61383e+00 
 4.69084e-03  1.08931e-03  0.00000e+00  3.47944e+00  4.50407e-04  3.59981e+02  3.60057e+02  5.13162e+00  5.22446e+00  2.19586e-01  9.64102e+00  7.73488e+01  1.70760e+05 -3.55632e+05  6.06452e+02  0.00000e+00 -1.84265e+05  1.68531e+03 -1.82580e+05  2.19580e-01  1.00000e+00 -9.64076e+00  0.00000e+00  1.67264e+00 
 4.75174e-03  1.32727e-03  1.05001e-20  3.47944e+00  4.75324e-04  3.59984e+02  3.60057e+02  5.12467e+00  5.21731e+00  2.22621e-01  8.75453e+00  7.32942e+01  1.63958e+05 -3.26725e+05  5.74087e+02  0.00000e+00 -1.62193e+05  1.43035e+03 -1.60763e+05  2.22616e-01  1.00000e+00 -8.75428e+00  0.00000e+00  1.74678e+00 
 4.82366e-03  1.56534e-03  0.00000e+00  3.47944e+00  5.02020e-04  3.59987e+02  3.60057e+02  5.11623e+00  5.20829e+00  2.26213e-01  7.89720e+00  6.93966e+01  1.57177e+05 -2.99806e+05  5.42791e+02  0.00000e+00 -1.42086e+05  1.20226e+03 -1.40884e+05  2.26208e-01  1.00000e+00 -7.89696e+00  0.00000e+00  1.83718e+00 
 4.90611e-03  1.80349e-03  8.81027e-21  3.47944e+00  5.30039e-04  3.59991e+02  3.60057e+02  5.10623e+00  5.19750e+00  2.30300e-01  7.08025e+00  6.57281e+01  1.50593e+05 -2.75037e+05  5.13191e+02  0.00000e+00 -1.23931e+05  1.00279e+03 -1.22928e+05  2.30295e-01  1.00000e+00 -7.08003e+00  0.00000e+00  1.94504e+00 
 4.99859e-03  2.04170e-03  0.00000e+00  3.47944e+00  5.58660e-04  3.59996e+02  3.60057e+02  5.09459e+00  5.18496e+00  2.34896e-01  6.31390e+00  6.23609e+01  1.44421e+05 -2.52758e+05  4.85892e+02  0.00000e+00 -1.07851e+05  8.31833e+02 -1.07019e+05  2.34892e-01  1.00000e+00 -6.31369e+00  0.00000e+00  2.07158e+00 
 5.10055e-03  2.27996e-03  7.58893e-21  3.47944e+00  5.86945e-04  3.60001e+02  3.60057e+02  5.08122e+00  5.17061e+00  2.39947e-01  5.60155e+00  5.93558e+01  1.38907e+05 -2.33206e+05  4.61376e+02  0.00000e+00 -9.38381e+04  6.87633e+02 -9.31505e+04  2.39943e-01  1.00000e+00 -5.60135e+00  0.00000e+00  2.21824e+00 
 5.21143e-03  2.51826e-03  7.09702e-21  3.47944e+00  6.13907e-04  3.60007e+02  3.60057e+02  5.06605e+00  5.15438e+00  2.45422e-01  4.94099e+00  5.67490e+01  1.34247e+05 -2.16528e+05  4.39919e+02  0.00000e+00 -8.18404e+04  5.66966e+02 -8.12734e+04  2.45418e-01  1.00000e+00 -4.94080e+00  0.00000e+00  2.38653e+00 
 5.33068e-03  2.75659e-03  1.33300e-20  3.47944e+00  6.38609e-04  3.60014e+02  3.60057e+02  5.04897e+00  5.13619e+00  2.51259e-01  4.32435e+00  5.45539e+01  1.30588e+05 -2.02721e+05  4.21612e+02  0.00000e+00 -7.17110e+04  4.65931e+02 -7.12451e+04  2.51255e-01  1.00000e+00 -4.32416e+00  0.00000e+00  2.57811e+00 
 5.45775e-03  2.99495e-03  1.25651e-20  3.47944e+00  6.60302e-04  3.60021e+02  3.60057e+02  5.02989e+00  5.11598e+00  2.57429e-01  3.74022e+00  5.27617e+01  1.27997e+05 -1.91697e+05  4.06367e+02  0.00000e+00 -6.32938e+04  3.80410e+02 -6.29134e+04  2.57426e-01  1.00000e+00 -3.74004e+00  0.00000e+00  2.79469e+00 
 5.59212e-03  3.23333e-03  0.00000e+00  3.47944e+00  6.78463e-04  3.60028e+02  3.60057e+02  5.00874e+00  5.09365e+00  2.63851e-01  3.17427e+00  5.13495e+01  1.26499e+05 -1.83257e+05  3.93905e+02  0.00000e+00 -5.63635e+04  3.06556e+02 -5.60569e+04  2.63848e-01  1.00000e+00 -3.17409e+00  0.00000e+00  3.03821e+00 
 5.73326e-03  3.47172e-03  0.00000e+00  3.47944e+00  6.92856e-04  3.60037e+02  3.60057e+02  4.98542e+00  5.06914e+00  2.70509e-01  2.61148e+00  5.02829e+01  1.26061e+05 -1.77187e+05  3.84081e+02  0.00000e+00 -5.07421e+04  2.40882e+02 -5.05012e+04  2.70508e-01  1.00000e+00 -2.61130e+00  0.00000e+00  3.31063e+00 
 5.88069e-03  3.71014e-03 -5.35987e-21  3.47944e+00  7.03442e-04  3.60045e+02  3.60057e+02  4.95986e+00  5.04239e+00  2.77320e-01  2.03618e+00  4.95263e+01  1.26648e+05 -1.73238e+05  3.76520e+02  0.00000e+00 -4.62137e+04  1.80443e+02 -4.60333e+04  2.77319e-01  1.00000e+00 -2.03600e+00  0.00000e+00  3.61431e+00 
 6.03395e-03  3.94857e-03  5.10973e-21  3.47944e+00  7.10369e-04  3.60054e+02  3.60057e+02  4.93199e+00  5.01332e+00  2.84111e-01  1.43304e+00  4.90435e+01  1.28230e+05 -1.71116e+05  3.70981e+02  0.00000e+00 -4.25144e+04  1.22746e+02 -4.23916e+04  2.84109e-01  1.00000e+00 -1.43286e+00  0.00000e+00  3.95154e+00 
 6.19261e-03  4.18701e-03  0.00000e+00  3.47944e+00  7.13927e-04  3.60063e+02  3.60057e+02  4.90172e+00  4.98186e+00  2.91072e-01  7.88940e-01  4.87992e+01  1.30716e+05 -1.70754e+05  3.67050e+02  0.00000e+00 -3.96711e+04  6.56241e+01 -3.96054e+04  2.91070e-01  1.00000e+00 -7.88754e-01  0.00000e+00  4.32542e+00 
 6.35626e-03  4.42546e-03  0.00000e+00  3.47944e+00  7.14444e-04  3.60073e+02  3.60058e+02  4.86896e+00  4.94792e+00  2.98063e-01  8.95673e-02  4.87640e+01  1.34081e+05 -1.71933e+05  3.64531e+02  0.00000e+00 -3.74875e+04  7.25642e+00 -3.74802e+04  2.98061e-01  1.00000e+00 -8.93763e-02  0.00000e+00  4.73889e+00 
 6.52453e-03  4.66392e-03 -8.96437e-21  3.47944e+00  7.12252e-04  3.60083e+02  3.60058e+02  4.83367e+00  4.91147e+00  3.04990e-01 -1.64588e+00  4.89143e+01  1.38327e+05 -1.74503e+05  3.63210e+02  0.00000e+00 -3.58120e+04 -1.31029e+02 -3.59431e+04  3.04988e-01  1.00000e+00  1.64631e+00  0.00000e+00  5.19648e+00 
 6.69707e-03  4.90238e-03  1.72236e-20  3.47944e+00  7.07706e-04  3.60093e+02  3.60058e+02  4.79567e+00  4.87232e+00  3.11905e-01 -3.60771e+00  4.92286e+01  1.43422e+05 -1.78416e+05  3.62904e+02  0.00000e+00 -3.46315e+04 -2.82611e+02 -3.49142e+04  3.11903e-01  1.00000e+00  3.60815e+00  0.00000e+00  5.70215e+00 
 6.87356e-03  5.14086e-03  8.28595e-21  3.47944e+00  7.01059e-04  3.60104e+02  3.60058e+02  4.75494e+00  4.83047e+00  3.18685e-01 -5.80077e+00  4.96956e+01  1.49434e+05 -1.83603e+05  3.63477e+02  0.00000e+00 -3.38059e+04 -4.48935e+02 -3.42548e+04  3.18684e-01  1.00000e+00  5.80122e+00  0.00000e+00  6.26300e+00 
 7.05370e-03  5.37934e-03 -1.59677e-20  3.47944e+00  6.92600e-04  3.60115e+02  3.60058e+02  4.71118e+00  4.78562e+00  3.25437e-01 -8.27008e+00  5.03027e+01  1.56357e+05 -1.90122e+05  3.64793e+02  0.00000e+00 -3.34005e+04 -6.34405e+02 -3.40349e+04  3.25436e-01  1.00000e+00  8.27055e+00  0.00000e+00  6.88446e+00 
 7.23722e-03  5.61783e-03  0.00000e+00  3.47944e+00  6.82458e-04  3.60126e+02  3.60058e+02  4.66446e+00  4.73783e+00  3.31995e-01 -1.10678e+01  5.10505e+01  1.64359e+05 -1.97983e+05  3.66805e+02  0.00000e+00 -3.32573e+04 -8.44609e+02 -3.41019e+04  3.31995e-01  1.00000e+00  1.10683e+01  0.00000e+00  7.57847e+00 
 7.42387e-03  5.85632e-03  0.00000e+00  3.47944e+00  6.70842e-04  3.60138e+02  3.60058e+02  4.61418e+00  4.68650e+00  3.38536e-01 -1.42625e+01  5.19347e+01  1.73465e+05 -2.07389e+05  3.69428e+02  0.00000e+00 -3.35545e+04 -1.08585e+03 -3.46403e+04  3.38537e-01  1.00000e+00  1.42630e+01  0.00000e+00  8.35258e+00 
 7.61342e-03  6.09482e-03  0.00000e+00  3.47944e+00  6.57743e-04  3.60151e+02  3.60059e+02  4.56064e+00  4.63196e+00  3.44842e-01 -1.79390e+01  5.29693e+01  1.83999e+05 -2.18462e+05  3.72689e+02  0.00000e+00 -3.40901e+04 -1.36748e+03 -3.54575e+04  3.44842e-01  1.00000e+00  1.79396e+01  0.00000e+00  9.22776e+00 
 7.80566e-03  6.33332e-03  0.00000e+00  3.47944e+00  6.43322e-04  3.60164e+02  3.60059e+02  4.50257e+00  4.57289e+00  3.51167e-01 -2.22151e+01  5.41570e+01  1.96021e+05 -2.31599e+05  3.76518e+02  0.00000e+00 -3.52007e+04 -1.70022e+03 -3.69010e+04  3.51168e-01  1.00000e+00  2.22157e+01  0.00000e+00  1.02146e+01 
 8.00039e-03  6.57182e-03  0.00000e+00  3.47944e+00  6.27438e-04  3.60178e+02  3.60059e+02  4.44109e+00  4.51047e+00  3.57230e-01 -2.72466e+01  5.55283e+01  2.10120e+05 -2.47090e+05  3.81043e+02  0.00000e+00 -3.65889e+04 -2.10180e+03 -3.86907e+04  3.57232e-01  1.00000e+00  2.72472e+01  0.00000e+00  1.13523e+01 
 8.19744e-03  6.81033e-03  1.31016e-20  3.47944e+00  6.10243e-04  3.60193e+02  3.60059e+02  4.37302e+00  4.44146e+00  3.63373e-01 -3.32537e+01  5.70932e+01  2.26419e+05 -2.65645e+05  3.86142e+02  0.00000e+00 -3.88398e+04 -2.59288e+03 -4.14327e+04  3.63375e-01  1.00000e+00  3.32543e+01  0.00000e+00  1.26562e+01 
 8.39664e-03  7.04884e-03  0.00000e+00  3.47944e+00  5.91446e-04  3.60209e+02  3.60060e+02  4.30208e+00  4.36965e+00  3.69251e-01 -4.05544e+01  5.89081e+01  2.46007e+05 -2.87877e+05  3.92151e+02  0.00000e+00 -4.14786e+04 -3.21071e+03 -4.46893e+04  3.69253e-01  1.00000e+00  4.05550e+01  0.00000e+00  1.42049e+01 
 8.59784e-03  7.28736e-03  0.00000e+00  3.47944e+00  5.71212e-04  3.60228e+02  3.60060e+02  4.21996e+00  4.28665e+00  3.75282e-01 -4.96041e+01  6.09952e+01  2.69165e+05 -3.15102e+05  3.98726e+02  0.00000e+00 -4.55384e+04 -4.00096e+03 -4.95393e+04  3.75285e-01  1.00000e+00  4.96048e+01  0.00000e+00  1.60225e+01 
 8.80092e-03  7.52587e-03  0.00000e+00  3.47944e+00  5.49020e-04  3.60249e+02  3.60060e+02  4.13755e+00  4.20347e+00  3.81087e-01 -6.11406e+01  6.34612e+01  2.98087e+05 -3.48714e+05  4.06771e+02  0.00000e+00 -5.02207e+04 -5.05270e+03 -5.52734e+04  3.81089e-01  1.00000e+00  6.11414e+01  0.00000e+00  1.82822e+01 
 9.00573e-03  7.76439e-03 -1.17014e-20  3.47944e+00  5.25076e-04  3.60274e+02  3.60061e+02  4.03352e+00  4.09865e+00  3.87123e-01 -7.62520e+01  6.63557e+01  3.33553e+05 -3.91418e+05  4.15180e+02  0.00000e+00 -5.74502e+04 -6.48616e+03 -6.39364e+04  3.87126e-01  1.00000e+00  7.62528e+01  0.00000e+00  2.10332e+01 
 9.21216e-03  8.00291e-03  0.00000e+00  3.47944e+00  4.98481e-04  3.60305e+02  3.60061e+02  3.93637e+00  4.00079e+00  3.93046e-01 -9.69678e+01  6.98965e+01  3.80570e+05 -4.46706e+05  4.26459e+02  0.00000e+00 -6.57097e+04 -8.55751e+03 -7.42672e+04  3.93048e-01  1.00000e+00  9.69686e+01  0.00000e+00  2.47097e+01 
 9.42012e-03  8.24144e-03  0.00000e+00  3.47944e+00  4.69544e-04  3.60344e+02  3.60062e+02  3.79480e+00  3.85849e+00  3.99297e-01 -1.26525e+02  7.42048e+01  4.41825e+05 -5.20974e+05  4.37159e+02  0.00000e+00 -7.87114e+04 -1.16686e+04 -9.03801e+04  3.99299e-01  1.00000e+00  1.26526e+02  0.00000e+00  2.94821e+01 
 9.62949e-03  8.47996e-03  0.00000e+00  3.47944e+00  4.36765e-04  3.60398e+02  3.60062e+02  3.67370e+00  3.73625e+00  4.05661e-01 -1.72091e+02  7.97745e+01  5.31203e+05 -6.23905e+05  4.53850e+02  0.00000e+00 -9.22480e+04 -1.67945e+04 -1.09043e+05  4.05662e-01  1.00000e+00  1.72092e+02  0.00000e+00  3.66811e+01 
 9.84019e-03  8.71849e-03  0.00000e+00  3.47944e+00  4.00879e-04  3.60475e+02  3.60063e+02  3.46234e+00  3.52173e+00  4.12567e-01 -2.47072e+02  8.69170e+01  6.60989e+05 -7.71166e+05  4.66439e+02  0.00000e+00 -1.09711e+05 -2.58310e+04 -1.35542e+05  4.12569e-01  1.00000e+00  2.47073e+02  0.00000e+00  4.74474e+01 
 1.00521e-02  8.95702e-03  0.00000e+00  3.47944e+00  3.60252e-04  3.60602e+02  3.60064e+02  3.27874e+00  3.33102e+00  4.19797e-01 -3.88708e+02  9.67202e+01  8.83136e+05 -9.79218e+05  4.87784e+02  0.00000e+00 -9.55949e+04 -4.44437e+04 -1.40039e+05  4.19797e-01  1.00000e+00  3.88709e+02  0.00000e+00  6.81373e+01 
 1.02653e-02  9.19555e-03  0.00000e+00  3.47944e+00  3.21599e-04  3.60849e+02  3.60065e+02  2.88777e+00  2.92822e+00  4.28377e-01 -6.88964e+02  1.08347e+02  1.25175e+06 -1.17653e+06  4.78890e+02  0.00000e+00  7.56963e+04 -8.64748e+04 -1.07785e+04  4.28380e-01  1.00000e+00  6.88965e+02  0.00000e+00  1.12601e+02 
 1.04795e-02  9.43408e-03  0.00000e+00  3.47944e+00  3.17106e-04  3.61516e+02  3.60066e+02  2.38356e+00  2.40837e+00  4.36633e-01 -4.85923e+03  1.09884e+02  1.56169e+06 -8.23535e+05  4.12723e+02  4.96551e+05  1.23512e+06 -1.19576e+06  3.93567e+04  4.36639e-01  1.00000e+00  4.85923e+03  3.51015e+03  2.85941e+02 
