# Code_Saturne plot output (1D profile)
#
# Iteration output: 4429
# Time output:      2.30010e+01
#
#COLUMN_TITLES: Distance | X | Y | Z | diameter_Field2 | temp_Field1 | temp_Field2 | Velocity_Field1[Z] | Velocity_Field2[Z] | vol_f_Field2 | mass_trans_Field1 | Xd_Field2 | BK | COAL | COMP | NUCL | W1 | MT | SMBR | ALPBB | CONDNUM | GAMA | GAMANUC | epsilon_Field1
 4.56474e-03  1.39645e-04  0.00000e+00  3.47944e+00  1.92931e-04  3.59665e+02  3.60053e+02  4.81237e+00  4.85483e+00  9.61550e-02  5.23831e+01  1.80612e+02  1.98011e+05 -7.08969e+05  1.11881e+03  0.00000e+00 -5.09840e+05  2.62988e+04 -4.83541e+05  9.61383e-02  1.00000e+00 -5.25418e+01  0.00000e+00  5.63876e-01 
 4.57812e-03  3.76525e-04  4.25872e-21  3.47944e+00  2.12845e-04  3.59667e+02  3.60053e+02  4.81172e+00  4.85933e+00  9.71722e-02  4.63593e+01  1.63713e+02  2.58779e+05 -6.06612e+05  1.01441e+03  0.00000e+00 -3.46819e+05  2.08748e+04 -3.25944e+05  9.71560e-02  1.00000e+00 -4.65005e+01  0.00000e+00  5.70992e-01 
 4.60371e-03  6.13858e-04  0.00000e+00  3.47944e+00  2.24751e-04  3.59670e+02  3.60053e+02  4.81012e+00  4.86070e+00  9.90172e-02  4.37170e+01  1.55041e+02  2.97309e+05 -5.66540e+05  9.60915e+02  0.00000e+00 -2.68270e+05  1.82944e+04 -2.49976e+05  9.90010e-02  1.00000e+00 -4.38513e+01  0.00000e+00  5.84934e-01 
 4.64138e-03  8.51483e-04  0.00000e+00  3.47944e+00  2.31966e-04  3.59675e+02  3.60053e+02  4.80777e+00  4.86003e+00  1.01707e-01  4.26885e+01  1.50218e+02  3.28189e+05 -5.56790e+05  9.30995e+02  0.00000e+00 -2.27670e+05  1.68509e+04 -2.10819e+05  1.01690e-01  1.00000e+00 -4.28214e+01  0.00000e+00  6.06001e-01 
 4.69084e-03  1.08931e-03  0.00000e+00  3.47944e+00  2.36915e-04  3.59682e+02  3.60053e+02  4.80460e+00  4.85788e+00  1.05284e-01  4.24432e+01  1.47081e+02  3.58916e+05 -5.63434e+05  9.11337e+02  0.00000e+00 -2.03607e+05  1.58472e+04 -1.87760e+05  1.05267e-01  1.00000e+00 -4.25776e+01  0.00000e+00  6.34631e-01 
 4.75174e-03  1.32727e-03  1.05001e-20  3.47944e+00  2.40790e-04  3.59690e+02  3.60053e+02  4.80058e+00  4.85448e+00  1.09769e-01  4.26117e+01  1.44714e+02  3.92521e+05 -5.80920e+05  8.96438e+02  0.00000e+00 -1.87503e+05  1.50154e+04 -1.72488e+05  1.09752e-01  1.00000e+00 -4.27497e+01  0.00000e+00  6.71455e-01 
 4.82366e-03  1.56534e-03  0.00000e+00  3.47944e+00  2.44231e-04  3.59700e+02  3.60053e+02  4.79565e+00  4.84994e+00  1.15186e-01  4.29969e+01  1.42674e+02  4.30286e+05 -6.06669e+05  8.83470e+02  0.00000e+00 -1.75500e+05  1.42364e+04 -1.61264e+05  1.15167e-01  1.00000e+00 -4.31399e+01  0.00000e+00  7.17276e-01 
 4.90611e-03  1.80349e-03  8.81027e-21  3.47944e+00  2.47623e-04  3.59712e+02  3.60053e+02  4.78972e+00  4.84430e+00  1.21540e-01  4.34638e+01  1.40720e+02  4.72652e+05 -6.39170e+05  8.70931e+02  0.00000e+00 -1.65647e+05  1.34532e+04 -1.52194e+05  1.21521e-01  1.00000e+00 -4.36129e+01  0.00000e+00  7.73082e-01 
 4.99859e-03  2.04170e-03  0.00000e+00  3.47944e+00  2.51223e-04  3.59724e+02  3.60053e+02  4.78271e+00  4.83755e+00  1.28832e-01  4.39038e+01  1.38704e+02  5.19502e+05 -6.77290e+05  8.57908e+02  0.00000e+00 -1.56930e+05  1.26381e+04 -1.44292e+05  1.28811e-01  1.00000e+00 -4.40600e+01  0.00000e+00  8.40042e-01 
 5.10055e-03  2.27996e-03  7.58893e-21  3.47944e+00  2.55227e-04  3.59738e+02  3.60053e+02  4.77448e+00  4.82959e+00  1.37036e-01  4.42184e+01  1.36528e+02  5.70273e+05 -7.19879e+05  8.43794e+02  0.00000e+00 -1.48762e+05  1.17806e+04 -1.36982e+05  1.37015e-01  1.00000e+00 -4.43822e+01  0.00000e+00  9.19513e-01 
 5.21143e-03  2.51826e-03  7.09702e-21  3.47944e+00  2.59797e-04  3.59753e+02  3.60053e+02  4.76489e+00  4.82034e+00  1.46153e-01  4.43272e+01  1.34126e+02  6.23938e+05 -7.65843e+05  8.28122e+02  0.00000e+00 -1.41077e+05  1.08801e+04 -1.30197e+05  1.46130e-01  1.00000e+00 -4.44992e+01  0.00000e+00  1.01301e+00 
 5.33068e-03  2.75659e-03  1.33300e-20  3.47944e+00  2.65055e-04  3.59768e+02  3.60053e+02  4.75376e+00  4.80965e+00  1.56063e-01  4.41397e+01  1.31466e+02  6.79297e+05 -8.13505e+05  8.10627e+02  0.00000e+00 -1.33398e+05  9.94696e+03 -1.23451e+05  1.56037e-01  1.00000e+00 -4.43198e+01  0.00000e+00  1.12243e+00 
 5.45775e-03  2.99495e-03  1.25651e-20  3.47944e+00  2.71106e-04  3.59785e+02  3.60053e+02  4.74091e+00  4.79733e+00  1.66730e-01  4.36080e+01  1.28532e+02  7.34507e+05 -8.61426e+05  7.91310e+02  0.00000e+00 -1.26128e+05  8.99506e+03 -1.17133e+05  1.66706e-01  1.00000e+00 -4.37961e+01  0.00000e+00  1.24930e+00 
 5.59212e-03  3.23333e-03  0.00000e+00  3.47944e+00  2.77994e-04  3.59801e+02  3.60053e+02  4.72610e+00  4.78317e+00  1.77957e-01  4.26740e+01  1.25347e+02  7.88068e+05 -9.07631e+05  7.70168e+02  0.00000e+00 -1.18793e+05  8.04464e+03 -1.10748e+05  1.77936e-01  1.00000e+00 -4.28696e+01  0.00000e+00  1.39579e+00 
 5.73326e-03  3.47172e-03  0.00000e+00  3.47944e+00  2.85737e-04  3.59818e+02  3.60053e+02  4.70915e+00  4.76697e+00  1.89642e-01  4.13451e+01  1.21950e+02  8.38204e+05 -9.50625e+05  7.47650e+02  0.00000e+00 -1.11673e+05  7.11773e+03 -1.04556e+05  1.89623e-01  1.00000e+00 -4.15473e+01  0.00000e+00  1.56368e+00 
 5.88069e-03  3.71014e-03 -5.35987e-21  3.47944e+00  2.94288e-04  3.59835e+02  3.60053e+02  4.68985e+00  4.74851e+00  2.01651e-01  3.96351e+01  1.18407e+02  8.83582e+05 -9.89243e+05  7.24019e+02  0.00000e+00 -1.04937e+05  6.23269e+03 -9.87043e+04  2.01633e-01  1.00000e+00 -3.98431e+01  0.00000e+00  1.75498e+00 
 6.03395e-03  3.94857e-03  5.10973e-21  3.47944e+00  3.03541e-04  3.59852e+02  3.60053e+02  4.66806e+00  4.72764e+00  2.13836e-01  3.76011e+01  1.14798e+02  9.23388e+05 -1.02271e+06  6.99831e+02  0.00000e+00 -9.86271e+04  5.40816e+03 -9.32189e+04  2.13817e-01  1.00000e+00 -3.78140e+01  0.00000e+00  1.97179e+00 
 6.19261e-03  4.18701e-03  0.00000e+00  3.47944e+00  3.13309e-04  3.59868e+02  3.60053e+02  4.64366e+00  4.70421e+00  2.26067e-01  3.53037e+01  1.11219e+02  9.57367e+05 -1.05097e+06  6.75592e+02  0.00000e+00 -9.29248e+04  4.65547e+03 -8.82694e+04  2.26047e-01  1.00000e+00 -3.55206e+01  0.00000e+00  2.21615e+00 
 6.35626e-03  4.42546e-03  0.00000e+00  3.47944e+00  3.23343e-04  3.59885e+02  3.60053e+02  4.61659e+00  4.67812e+00  2.38204e-01  3.28213e+01  1.07768e+02  9.85840e+05 -1.07437e+06  6.51943e+02  0.00000e+00 -8.78775e+04  3.98232e+03 -8.38952e+04  2.38184e-01  1.00000e+00 -3.30415e+01  0.00000e+00  2.48966e+00 
 6.52453e-03  4.66392e-03 -8.96437e-21  3.47944e+00  3.33299e-04  3.59901e+02  3.60053e+02  4.58684e+00  4.64930e+00  2.50036e-01  3.02179e+01  1.04549e+02  1.01032e+06 -1.09388e+06  6.29277e+02  0.00000e+00 -8.29224e+04  3.39081e+03 -7.95316e+04  2.50016e-01  1.00000e+00 -3.04408e+01  0.00000e+00  2.79548e+00 
 6.69707e-03  4.90238e-03  1.72236e-20  3.47944e+00  3.42856e-04  3.59917e+02  3.60054e+02  4.55439e+00  4.61768e+00  2.61531e-01  2.75696e+01  1.01635e+02  1.03199e+06 -1.11106e+06  6.08311e+02  0.00000e+00 -7.84605e+04  2.87746e+03 -7.55830e+04  2.61513e-01  1.00000e+00 -2.77950e+01  0.00000e+00  3.13527e+00 
 6.87356e-03  5.14086e-03  8.28595e-21  3.47944e+00  3.51633e-04  3.59933e+02  3.60054e+02  4.51922e+00  4.58316e+00  2.72630e-01  2.49201e+01  9.90981e+01  1.05300e+06 -1.12805e+06  5.89354e+02  0.00000e+00 -7.44570e+04  2.43509e+03 -7.20219e+04  2.72612e-01  1.00000e+00 -2.51481e+01  0.00000e+00  3.51361e+00 
 7.05370e-03  5.37934e-03 -1.59677e-20  3.47944e+00  3.59339e-04  3.59948e+02  3.60054e+02  4.48126e+00  4.54565e+00  2.83333e-01  2.23041e+01  9.69734e+01  1.07499e+06 -1.14668e+06  5.72686e+02  0.00000e+00 -7.11171e+04  2.05459e+03 -6.90625e+04  2.83316e-01  1.00000e+00 -2.25351e+01  0.00000e+00  3.93437e+00 
 7.23722e-03  5.61783e-03  0.00000e+00  3.47944e+00  3.65653e-04  3.59963e+02  3.60054e+02  4.44047e+00  4.50501e+00  2.93588e-01  1.97248e+01  9.52990e+01  1.10026e+06 -1.16909e+06  5.58366e+02  0.00000e+00 -6.82731e+04  1.72585e+03 -6.65473e+04  2.93572e-01  1.00000e+00 -1.99594e+01  0.00000e+00  4.40489e+00 
 7.42387e-03  5.85632e-03  0.00000e+00  3.47944e+00  3.70430e-04  3.59978e+02  3.60054e+02  4.39656e+00  4.46096e+00  3.03476e-01  1.71768e+01  9.40704e+01  1.13003e+06 -1.19694e+06  5.46429e+02  0.00000e+00 -6.63606e+04  1.43807e+03 -6.49225e+04  3.03459e-01  1.00000e+00 -1.74161e+01  0.00000e+00  4.93148e+00 
 7.61342e-03  6.09482e-03  0.00000e+00  3.47944e+00  3.73450e-04  3.59993e+02  3.60054e+02  4.34946e+00  4.41336e+00  3.12917e-01  1.46342e+01  9.33102e+01  1.16679e+06 -1.23228e+06  5.36774e+02  0.00000e+00 -6.49514e+04  1.18189e+03 -6.37695e+04  3.12900e-01  1.00000e+00 -1.48792e+01  0.00000e+00  5.52720e+00 
 7.80566e-03  6.33332e-03  0.00000e+00  3.47944e+00  3.74729e-04  3.60007e+02  3.60054e+02  4.29857e+00  4.36164e+00  3.22073e-01  1.20616e+01  9.29920e+01  1.21127e+06 -1.27666e+06  5.29298e+02  0.00000e+00 -6.48594e+04  9.47047e+02 -6.39123e+04  3.22055e-01  1.00000e+00 -1.23137e+01  0.00000e+00  6.20202e+00 
 8.00039e-03  6.57182e-03  0.00000e+00  3.47944e+00  3.74095e-04  3.60021e+02  3.60055e+02  4.24396e+00  4.30581e+00  3.30819e-01  9.41170e+00  9.31500e+01  1.26677e+06 -1.33265e+06  5.23879e+02  0.00000e+00 -6.53581e+04  7.25461e+02 -6.46327e+04  3.30800e-01  1.00000e+00 -9.67233e+00  0.00000e+00  6.97965e+00 
 8.19744e-03  6.81033e-03  1.31016e-20  3.47944e+00  3.71674e-04  3.60035e+02  3.60055e+02  4.18428e+00  4.24460e+00  3.39353e-01  6.61987e+00  9.37573e+01  1.33408e+06 -1.40216e+06  5.20382e+02  0.00000e+00 -6.75641e+04  5.07121e+02 -6.70570e+04  3.39334e-01  1.00000e+00 -6.89084e+00  0.00000e+00  7.87725e+00 
 8.39664e-03  7.04884e-03  0.00000e+00  3.47944e+00  3.67261e-04  3.60049e+02  3.60055e+02  4.12032e+00  4.17871e+00  3.47566e-01  3.60857e+00  9.48845e+01  1.41830e+06 -1.48975e+06  5.18895e+02  0.00000e+00 -7.09318e+04  2.83021e+02 -7.06487e+04  3.47547e-01  1.00000e+00 -3.89204e+00  0.00000e+00  8.93828e+00 
 8.59784e-03  7.28736e-03  0.00000e+00  3.47944e+00  3.61016e-04  3.60063e+02  3.60055e+02  4.04864e+00  4.10480e+00  3.55668e-01  2.61382e-01  9.65263e+01  1.52167e+06 -1.59900e+06  5.18866e+02  0.00000e+00 -7.68090e+04  4.04725e+01 -7.67686e+04  3.55648e-01  1.00000e+00 -5.59858e-01  0.00000e+00  1.02001e+01 
 8.80092e-03  7.52587e-03  0.00000e+00  3.47944e+00  3.52606e-04  3.60078e+02  3.60056e+02  3.97270e+00  4.02630e+00  3.63478e-01 -8.10971e+00  9.88292e+01  1.65419e+06 -1.73890e+06  5.20864e+02  0.00000e+00 -8.41897e+04 -5.37075e+02 -8.47268e+04  3.63455e-01  1.00000e+00  7.41554e+00  0.00000e+00  1.17561e+01 
 9.00573e-03  7.76439e-03 -1.17014e-20  3.47944e+00  3.42198e-04  3.60093e+02  3.60056e+02  3.88275e+00  3.93343e+00  3.71341e-01 -1.85860e+01  1.01836e+02  1.82058e+06 -1.91809e+06  5.24818e+02  0.00000e+00 -9.69936e+04 -1.30356e+03 -9.82972e+04  3.71317e-01  1.00000e+00  1.78451e+01  0.00000e+00  1.36748e+01 
 9.21216e-03  8.00291e-03  0.00000e+00  3.47944e+00  3.29093e-04  3.60110e+02  3.60056e+02  3.79048e+00  3.83784e+00  3.79012e-01 -3.21855e+01  1.05892e+02  2.04613e+06 -2.15984e+06  5.31651e+02  0.00000e+00 -1.13176e+05 -2.33570e+03 -1.15512e+05  3.78988e-01  1.00000e+00  3.13854e+01  0.00000e+00  1.62131e+01 
 9.42012e-03  8.24144e-03  0.00000e+00  3.47944e+00  3.13411e-04  3.60131e+02  3.60057e+02  3.66981e+00  3.71356e+00  3.86868e-01 -5.13091e+01  1.11191e+02  2.34764e+06 -2.48992e+06  5.40661e+02  0.00000e+00 -1.41739e+05 -3.86112e+03 -1.45600e+05  3.86841e-01  1.00000e+00  5.04344e+01  0.00000e+00  1.95597e+01 
 9.62949e-03  8.47996e-03  0.00000e+00  3.47944e+00  2.93933e-04  3.60158e+02  3.60057e+02  3.54839e+00  3.58735e+00  3.94748e-01 -8.11255e+01  1.18560e+02  2.79581e+06 -2.97909e+06  5.56144e+02  0.00000e+00 -1.82728e+05 -6.41200e+03 -1.89140e+05  3.94721e-01  1.00000e+00  8.01492e+01  0.00000e+00  2.44825e+01 
 9.84019e-03  8.71849e-03  0.00000e+00  3.47944e+00  2.70489e-04  3.60198e+02  3.60058e+02  3.36675e+00  3.40131e+00  4.02770e-01 -1.33431e+02  1.28838e+02  3.47315e+06 -3.73555e+06  5.74171e+02  0.00000e+00 -2.61822e+05 -1.12737e+04 -2.73096e+05  4.02741e-01  1.00000e+00  1.32316e+02  0.00000e+00  3.17885e+01 
 1.00521e-02  8.95702e-03  0.00000e+00  3.47944e+00  2.40341e-04  3.60265e+02  3.60058e+02  3.18689e+00  3.21724e+00  4.10952e-01 -2.44984e+02  1.45001e+02  4.72085e+06 -5.10848e+06  6.05312e+02  0.00000e+00 -3.87021e+05 -2.28984e+04 -4.09919e+05  4.10920e-01  1.00000e+00  2.43649e+02  0.00000e+00  4.53779e+01 
 1.02653e-02  9.19555e-03  0.00000e+00  3.47944e+00  2.02768e-04  3.60409e+02  3.60059e+02  2.86233e+00  2.88835e+00  4.19947e-01 -5.55761e+02  1.71872e+02  7.35348e+06 -7.94886e+06  6.37959e+02  0.00000e+00 -5.94738e+05 -6.03963e+04 -6.55134e+05  4.19910e-01  1.00000e+00  5.54058e+02  0.00000e+00  7.52811e+01 
 1.04795e-02  9.43408e-03  0.00000e+00  3.47944e+00  1.57158e-04  3.60878e+02  3.60060e+02  2.39211e+00  2.40735e+00  4.32496e-01 -5.34585e+03  2.21756e+02  1.53229e+07 -1.50355e+07  7.11908e+02  1.54240e+06  1.83048e+06 -1.87733e+06 -4.68495e+04  4.32466e-01  1.00000e+00  5.34344e+03  3.35706e+03  1.90797e+02 
