# Code_Saturne plot output (1D profile)
#
# Iteration output: 13552
# Time output:      2.30003e+01
#
#COLUMN_TITLES: Distance | X | Y | Z | diameter_Field2 | temp_Field1 | temp_Field2 | Velocity_Field1[Z] | Velocity_Field2[Z] | vol_f_Field2 | mass_trans_Field1 | Xd_Field2 | BK | COAL | COMP | NUCL | W1 | MT | SMBR | ALPBB | CONDNUM | GAMA | GAMANUC | epsilon_Field1
 4.56474e-03  1.39645e-04  0.00000e+00  3.47944e+00  7.72730e-04  3.60329e+02  3.60145e+02  9.02396e+00  9.17424e+00  6.96585e-01 -3.69695e+01  4.48939e+01  1.94492e+05 -1.91085e+05  1.49130e+03  0.00000e+00  4.89868e+03 -9.94268e+02  3.90441e+03  6.96580e-01  1.00000e+00  3.69747e+01  0.00000e+00  1.16546e+01 
 4.57812e-03  3.76525e-04  4.25872e-21  3.47944e+00  7.71209e-04  3.60329e+02  3.60145e+02  9.02287e+00  9.17342e+00  6.96654e-01 -3.70421e+01  4.49825e+01  1.95391e+05 -1.92075e+05  1.49422e+03  0.00000e+00  4.81023e+03 -9.98086e+02  3.81214e+03  6.96648e-01  1.00000e+00  3.70473e+01  0.00000e+00  1.17092e+01 
 4.60371e-03  6.13858e-04  0.00000e+00  3.47944e+00  7.68314e-04  3.60328e+02  3.60145e+02  9.01806e+00  9.16806e+00  6.96804e-01 -3.71253e+01  4.51519e+01  1.97118e+05 -1.93963e+05  1.49919e+03  0.00000e+00  4.65398e+03 -1.00388e+03  3.65011e+03  6.96798e-01  1.00000e+00  3.71305e+01  0.00000e+00  1.18164e+01 
 4.64138e-03  8.51483e-04  0.00000e+00  3.47944e+00  7.64083e-04  3.60328e+02  3.60145e+02  9.01151e+00  9.16053e+00  6.97037e-01 -3.72354e+01  4.54019e+01  1.99681e+05 -1.96758e+05  1.50658e+03  0.00000e+00  4.43028e+03 -1.01209e+03  3.41819e+03  6.97031e-01  1.00000e+00  3.72407e+01  0.00000e+00  1.19770e+01 
 4.69084e-03  1.08931e-03  0.00000e+00  3.47944e+00  7.58544e-04  3.60327e+02  3.60145e+02  9.00244e+00  9.15014e+00  6.97344e-01 -3.73781e+01  4.57335e+01  2.03118e+05 -2.00491e+05  1.51627e+03  0.00000e+00  4.14349e+03 -1.02294e+03  3.12055e+03  6.97338e-01  1.00000e+00  3.73834e+01  0.00000e+00  1.21931e+01 
 4.75174e-03  1.32727e-03  1.05001e-20  3.47944e+00  7.51769e-04  3.60326e+02  3.60145e+02  8.99122e+00  9.13728e+00  6.97742e-01 -3.75511e+01  4.61457e+01  2.07437e+05 -2.05176e+05  1.52830e+03  0.00000e+00  3.78848e+03 -1.03634e+03  2.75214e+03  6.97737e-01  1.00000e+00  3.75565e+01  0.00000e+00  1.24673e+01 
 4.82366e-03  1.56534e-03  0.00000e+00  3.47944e+00  7.43808e-04  3.60325e+02  3.60145e+02  8.97761e+00  9.12174e+00  6.98215e-01 -3.77546e+01  4.66396e+01  2.12690e+05 -2.10863e+05  1.54264e+03  0.00000e+00  3.36955e+03 -1.05240e+03  2.31715e+03  6.98209e-01  1.00000e+00  3.77600e+01  0.00000e+00  1.28022e+01 
 4.90611e-03  1.80349e-03  8.81027e-21  3.47944e+00  7.34757e-04  3.60324e+02  3.60145e+02  8.96168e+00  9.10358e+00  6.98793e-01 -3.79854e+01  4.72142e+01  2.18891e+05 -2.17575e+05  1.55927e+03  0.00000e+00  2.87486e+03 -1.07099e+03  1.80387e+03  6.98788e-01  1.00000e+00  3.79909e+01  0.00000e+00  1.32019e+01 
 4.99859e-03  2.04170e-03  0.00000e+00  3.47944e+00  7.24667e-04  3.60322e+02  3.60145e+02  8.94333e+00  9.08276e+00  6.99434e-01 -3.82440e+01  4.78718e+01  2.26132e+05 -2.25391e+05  1.57820e+03  0.00000e+00  2.31933e+03 -1.09230e+03  1.22703e+03  6.99429e-01  1.00000e+00  3.82497e+01  0.00000e+00  1.36705e+01 
 5.10055e-03  2.27996e-03  7.58893e-21  3.47944e+00  7.13649e-04  3.60321e+02  3.60145e+02  8.92235e+00  9.05904e+00  7.00182e-01 -3.85259e+01  4.86110e+01  2.34431e+05 -2.34349e+05  1.59949e+03  0.00000e+00  1.68166e+03 -1.11615e+03  5.65512e+02  7.00176e-01  1.00000e+00  3.85317e+01  0.00000e+00  1.42133e+01 
 5.21143e-03  2.51826e-03  7.09702e-21  3.47944e+00  7.01767e-04  3.60319e+02  3.60145e+02  8.89881e+00  9.03255e+00  7.00992e-01 -3.88324e+01  4.94342e+01  2.43896e+05 -2.44548e+05  1.62311e+03  0.00000e+00  9.71033e+02 -1.14276e+03 -1.71727e+02  7.00987e-01  1.00000e+00  3.88383e+01  0.00000e+00  1.48355e+01 
 5.33068e-03  2.75659e-03  1.33300e-20  3.47944e+00  6.89146e-04  3.60317e+02  3.60145e+02  8.87255e+00  9.00314e+00  7.01900e-01 -3.91572e+01  5.03397e+01  2.54563e+05 -2.56028e+05  1.64881e+03  0.00000e+00  1.82862e+02 -1.17191e+03 -9.89048e+02  7.01894e-01  1.00000e+00  3.91633e+01  0.00000e+00  1.55443e+01 
 5.45775e-03  2.99495e-03  1.25651e-20  3.47944e+00  6.75845e-04  3.60315e+02  3.60146e+02  8.84343e+00  8.97069e+00  7.02890e-01 -3.95020e+01  5.13307e+01  2.66541e+05 -2.68931e+05  1.67656e+03  0.00000e+00 -7.13291e+02 -1.20381e+03 -1.91710e+03  7.02883e-01  1.00000e+00  3.95082e+01  0.00000e+00  1.63466e+01 
 5.59212e-03  3.23333e-03  0.00000e+00  3.47944e+00  6.61992e-04  3.60313e+02  3.60146e+02  8.81146e+00  8.93524e+00  7.03957e-01 -3.98590e+01  5.24052e+01  2.79910e+05 -2.83296e+05  1.70618e+03  0.00000e+00 -1.67921e+03 -1.23823e+03 -2.91744e+03  7.03951e-01  1.00000e+00  3.98654e+01  0.00000e+00  1.72514e+01 
 5.73326e-03  3.47172e-03  0.00000e+00  3.47944e+00  6.47640e-04  3.60310e+02  3.60146e+02  8.77632e+00  8.89648e+00  7.05140e-01 -4.02307e+01  5.35668e+01  2.94759e+05 -2.99310e+05  1.73776e+03  0.00000e+00 -2.81284e+03 -1.27534e+03 -4.08818e+03  7.05133e-01  1.00000e+00  4.02372e+01  0.00000e+00  1.82681e+01 
 5.88069e-03  3.71014e-03 -5.35987e-21  3.47944e+00  6.32908e-04  3.60308e+02  3.60146e+02  8.73811e+00  8.85453e+00  7.06360e-01 -4.06098e+01  5.48141e+01  3.11256e+05 -3.17020e+05  1.77134e+03  0.00000e+00 -3.99247e+03 -1.31506e+03 -5.30753e+03  7.06353e-01  1.00000e+00  4.06165e+01  0.00000e+00  1.94070e+01 
 6.03395e-03  3.94857e-03  5.10973e-21  3.47944e+00  6.17846e-04  3.60305e+02  3.60147e+02  8.69651e+00  8.80910e+00  7.07717e-01 -4.09976e+01  5.61507e+01  3.29454e+05 -3.36651e+05  1.80707e+03  0.00000e+00 -5.38992e+03 -1.35739e+03 -6.74730e+03  7.07711e-01  1.00000e+00  4.10046e+01  0.00000e+00  2.06817e+01 
 6.19261e-03  4.18701e-03  0.00000e+00  3.47944e+00  6.02548e-04  3.60302e+02  3.60147e+02  8.65148e+00  8.76015e+00  7.09090e-01 -4.13902e+01  5.75768e+01  3.49607e+05 -3.58290e+05  1.84480e+03  0.00000e+00 -6.83821e+03 -1.40247e+03 -8.24067e+03  7.09085e-01  1.00000e+00  4.13974e+01  0.00000e+00  2.21047e+01 
 6.35626e-03  4.42546e-03  0.00000e+00  3.47944e+00  5.87065e-04  3.60300e+02  3.60148e+02  8.60274e+00  8.70745e+00  7.10592e-01 -4.17866e+01  5.90958e+01  3.71785e+05 -3.82174e+05  1.88449e+03  0.00000e+00 -8.50415e+03 -1.45018e+03 -9.95433e+03  7.10589e-01  1.00000e+00  4.17941e+01  0.00000e+00  2.36953e+01 
 6.52453e-03  4.66392e-03 -8.96437e-21  3.47944e+00  5.71452e-04  3.60297e+02  3.60148e+02  8.55024e+00  8.65093e+00  7.12119e-01 -4.21886e+01  6.07111e+01  3.96303e+05 -4.08496e+05  1.92594e+03  0.00000e+00 -1.02673e+04 -1.50093e+03 -1.17682e+04  7.12118e-01  1.00000e+00  4.21964e+01  0.00000e+00  2.54705e+01 
 6.69707e-03  4.90238e-03  1.72236e-20  3.47944e+00  5.55754e-04  3.60294e+02  3.60149e+02  8.49355e+00  8.59019e+00  7.13740e-01 -4.25949e+01  6.24266e+01  4.23328e+05 -4.37507e+05  1.96897e+03  0.00000e+00 -1.22094e+04 -1.55467e+03 -1.37641e+04  7.13740e-01  1.00000e+00  4.26030e+01  0.00000e+00  2.74565e+01 
 6.87356e-03  5.14086e-03  8.28595e-21  3.47944e+00  5.39993e-04  3.60291e+02  3.60149e+02  8.43257e+00  8.52512e+00  7.15414e-01 -4.30141e+01  6.42496e+01  4.53212e+05 -4.69554e+05  2.01348e+03  0.00000e+00 -1.43283e+04 -1.61204e+03 -1.59403e+04  7.15415e-01  1.00000e+00  4.30225e+01  0.00000e+00  2.96784e+01 
 7.05370e-03  5.37934e-03 -1.59677e-20  3.47944e+00  5.24193e-04  3.60288e+02  3.60150e+02  8.36684e+00  8.45529e+00  7.17164e-01 -4.34490e+01  6.61869e+01  4.86292e+05 -5.04967e+05  2.05908e+03  0.00000e+00 -1.66165e+04 -1.67336e+03 -1.82898e+04  7.17164e-01  1.00000e+00  4.34578e+01  0.00000e+00  3.21741e+01 
 7.23722e-03  5.61783e-03  0.00000e+00  3.47944e+00  5.08346e-04  3.60285e+02  3.60151e+02  8.29618e+00  8.38049e+00  7.18975e-01 -4.39183e+01  6.82512e+01  5.23033e+05 -5.44320e+05  2.10622e+03  0.00000e+00 -1.91810e+04 -1.73980e+03 -2.09208e+04  7.18974e-01  1.00000e+00  4.39275e+01  0.00000e+00  3.49811e+01 
 7.42387e-03  5.85632e-03  0.00000e+00  3.47944e+00  4.92449e-04  3.60282e+02  3.60151e+02  8.22085e+00  8.30111e+00  7.20847e-01 -4.44378e+01  7.04554e+01  5.64032e+05 -5.88142e+05  2.15295e+03  0.00000e+00 -2.19573e+04 -1.81253e+03 -2.37698e+04  7.20845e-01  1.00000e+00  4.44473e+01  0.00000e+00  3.81578e+01 
 7.61342e-03  6.09482e-03  0.00000e+00  3.47944e+00  4.76463e-04  3.60279e+02  3.60152e+02  8.13881e+00  8.21488e+00  7.22786e-01 -4.50429e+01  7.28204e+01  6.10055e+05 -6.37282e+05  2.20419e+03  0.00000e+00 -2.50231e+04 -1.89379e+03 -2.69169e+04  7.22785e-01  1.00000e+00  4.50528e+01  0.00000e+00  4.17731e+01 
 7.80566e-03  6.33332e-03  0.00000e+00  3.47944e+00  4.60335e-04  3.60276e+02  3.60153e+02  8.05013e+00  8.12202e+00  7.24762e-01 -4.57785e+01  7.53729e+01  6.62180e+05 -6.92842e+05  2.25822e+03  0.00000e+00 -2.84031e+04 -1.98676e+03 -3.03899e+04  7.24763e-01  1.00000e+00  4.57890e+01  0.00000e+00  4.59137e+01 
 8.00039e-03  6.57182e-03  0.00000e+00  3.47944e+00  4.44006e-04  3.60274e+02  3.60154e+02  7.95417e+00  8.02181e+00  7.26823e-01 -4.67157e+01  7.81463e+01  7.21610e+05 -7.56314e+05  2.31582e+03  0.00000e+00 -3.23881e+04 -2.09607e+03 -3.44842e+04  7.26829e-01  1.00000e+00  4.67266e+01  0.00000e+00  5.06951e+01 
 8.19744e-03  6.81033e-03  1.31016e-20  3.47944e+00  4.27374e-04  3.60271e+02  3.60155e+02  7.84998e+00  7.91334e+00  7.28919e-01 -4.79633e+01  8.11890e+01  7.90346e+05 -8.29760e+05  2.37829e+03  0.00000e+00 -3.70359e+04 -2.22941e+03 -3.92653e+04  7.28930e-01  1.00000e+00  4.79749e+01  0.00000e+00  5.62768e+01 
 8.39664e-03  7.04884e-03  0.00000e+00  3.47944e+00  4.10349e-04  3.60270e+02  3.60156e+02  7.73644e+00  7.79542e+00  7.31117e-01 -4.96841e+01  8.45590e+01  8.70701e+05 -9.15903e+05  2.44736e+03  0.00000e+00 -4.27553e+04 -2.39801e+03 -4.51533e+04  7.31135e-01  1.00000e+00  4.96963e+01  0.00000e+00  6.28793e+01 
 8.59784e-03  7.28736e-03  0.00000e+00  3.47944e+00  3.92757e-04  3.60268e+02  3.60157e+02  7.61192e+00  7.66648e+00  7.33325e-01 -5.21583e+01  8.83485e+01  9.66750e+05 -1.01900e+06  2.52597e+03  0.00000e+00 -4.97267e+04 -2.62231e+03 -5.23490e+04  7.33348e-01  1.00000e+00  5.21712e+01  0.00000e+00  7.08131e+01 
 8.80092e-03  7.52587e-03  0.00000e+00  3.47944e+00  3.74468e-04  3.60268e+02  3.60158e+02  7.47450e+00  7.52454e+00  7.35676e-01 -5.58208e+01  9.26659e+01  1.08329e+06 -1.14471e+06  2.61819e+03  0.00000e+00 -5.88028e+04 -2.93418e+03 -6.17370e+04  7.35703e-01  1.00000e+00  5.58345e+01  0.00000e+00  8.05498e+01 
 9.00573e-03  7.76439e-03 -1.17014e-20  3.47944e+00  3.55178e-04  3.60268e+02  3.60160e+02  7.32095e+00  7.36637e+00  7.38005e-01 -6.15017e+01  9.77013e+01  1.22955e+06 -1.30313e+06  2.73097e+03  0.00000e+00 -7.08508e+04 -3.39770e+03 -7.42485e+04  7.38033e-01  1.00000e+00  6.15164e+01  0.00000e+00  9.27802e+01 
 9.21216e-03  8.00291e-03  0.00000e+00  3.47944e+00  3.34669e-04  3.60271e+02  3.60162e+02  7.14792e+00  7.18859e+00  7.40604e-01 -7.06602e+01  1.03693e+02  1.41755e+06 -1.50795e+06  2.87590e+03  0.00000e+00 -8.75245e+04 -4.12853e+03 -9.16530e+04  7.40626e-01  1.00000e+00  7.06761e+01  0.00000e+00  1.08727e+02 
 9.42012e-03  8.24144e-03  0.00000e+00  3.47944e+00  3.12407e-04  3.60278e+02  3.60165e+02  6.94387e+00  6.97949e+00  7.43082e-01 -8.64758e+01  1.11087e+02  1.67227e+06 -1.78868e+06  3.07460e+03  0.00000e+00 -1.13338e+05 -5.39496e+03 -1.18733e+05  7.43083e-01  1.00000e+00  8.64931e+01  0.00000e+00  1.30142e+02 
 9.62949e-03  8.47996e-03  0.00000e+00  3.47944e+00  2.87872e-04  3.60290e+02  3.60169e+02  6.70993e+00  6.74029e+00  7.46427e-01 -1.15829e+02  1.20564e+02  2.03192e+06 -2.19156e+06  3.36326e+03  0.00000e+00 -1.56285e+05 -7.80750e+03 -1.64093e+05  7.46423e-01  1.00000e+00  1.15848e+02  0.00000e+00  1.61224e+02 
 9.84019e-03  8.71849e-03  0.00000e+00  3.47944e+00  2.60073e-04  3.60317e+02  3.60177e+02  6.41155e+00  6.43730e+00  7.49160e-01 -1.77842e+02  1.33467e+02  2.59407e+06 -2.83135e+06  3.80678e+03  0.00000e+00 -2.33473e+05 -1.32225e+04 -2.46695e+05  7.49145e-01  1.00000e+00  1.77864e+02  0.00000e+00  2.08400e+02 
 1.00521e-02  8.95702e-03  0.00000e+00  3.47944e+00  2.26621e-04  3.60376e+02  3.60190e+02  6.07290e+00  6.09300e+00  7.54470e-01 -3.36485e+02  1.53201e+02  3.60947e+06 -3.97002e+06  4.60151e+03  0.00000e+00 -3.55955e+05 -2.85126e+04 -3.84467e+05  7.54432e-01  1.00000e+00  3.36509e+02  0.00000e+00  2.99638e+02 
 1.02653e-02  9.19555e-03  0.00000e+00  3.47944e+00  1.86783e-04  3.60543e+02  3.60218e+02  5.46875e+00  5.48647e+00  7.57231e-01 -8.91901e+02  1.85956e+02  5.81248e+06 -6.41377e+06  5.83301e+03  0.00000e+00 -5.95457e+05 -9.13843e+04 -6.86842e+05  7.57202e-01  1.00000e+00  8.91932e+02  0.00000e+00  4.92015e+02 
 1.04795e-02  9.43408e-03  0.00000e+00  3.47944e+00  1.36956e-04  3.61266e+02  3.60293e+02  4.67509e+00  4.68855e+00  7.67444e-01 -9.40239e+03  2.53901e+02  1.30196e+07 -1.22856e+07  1.36002e+04  1.60166e+06  2.34933e+06 -2.37511e+06 -2.57846e+04  7.67396e-01  1.00000e+00  9.40243e+03  4.88396e+03  1.31324e+03 
