# Code_Saturne plot output (1D profile)
#
# Iteration output: 4204
# Time output:      2.30003e+01
#
#COLUMN_TITLES: Distance | X | Y | Z | diameter_Field2 | temp_Field1 | temp_Field2 | Velocity_Field1[Z] | Velocity_Field2[Z] | vol_f_Field2 | mass_trans_Field1 | Xd_Field2 | BK | COAL | COMP | NUCL | W1 | MT | SMBR | ALPBB | CONDNUM | GAMA | GAMANUC | epsilon_Field1
 4.56474e-03  1.39645e-04  0.00000e+00  3.47944e+00  4.34980e-05  3.59347e+02  3.60051e+02  4.54002e+00  4.54545e+00  2.09750e-02  1.39085e+02  8.01204e+02  1.96487e-24 -5.10442e+05  4.33964e+03  0.00000e+00 -5.06103e+05  1.61037e+06  1.10427e+06  2.09708e-02  1.00000e+00 -1.39482e+02  0.00000e+00  2.68540e-01 
 4.57812e-03  3.76525e-04  4.25872e-21  3.47944e+00  5.84475e-05  3.59349e+02  3.60051e+02  4.53977e+00  4.54826e+00  2.17381e-02  9.50286e+01  5.96275e+02  9.44886e-12 -3.21561e+05  3.22440e+03  0.00000e+00 -3.18337e+05  7.90078e+05  4.71742e+05  2.17349e-02  1.00000e+00 -9.53013e+01  0.00000e+00  2.71780e-01 
 4.60371e-03  6.13858e-04  0.00000e+00  3.47944e+00  7.12311e-05  3.59354e+02  3.60051e+02  4.53875e+00  4.54995e+00  2.30089e-02  7.64792e+01  4.89263e+02  3.52223e-06 -2.44806e+05  2.64533e+03  0.00000e+00 -2.42161e+05  4.92939e+05  2.50778e+05  2.30054e-02  1.00000e+00 -7.67006e+01  0.00000e+00  2.78142e-01 
 4.64138e-03  8.51483e-04  0.00000e+00  3.47944e+00  8.20550e-05  3.59363e+02  3.60051e+02  4.53718e+00  4.55067e+00  2.48042e-02  6.76875e+01  4.24725e+02  3.60904e-03 -2.09541e+05  2.29626e+03  0.00000e+00 -2.07244e+05  3.51325e+05  1.44080e+05  2.48005e-02  1.00000e+00 -6.78861e+01  0.00000e+00  2.87735e-01 
 4.69084e-03  1.08931e-03  0.00000e+00  3.47944e+00  9.17684e-05  3.59376e+02  3.60051e+02  4.53502e+00  4.55054e+00  2.71440e-02  6.30877e+01  3.79769e+02  3.15528e-01 -1.92061e+05  2.05300e+03  0.00000e+00 -1.90008e+05  2.67561e+05  7.75532e+04  2.71404e-02  1.00000e+00 -6.32762e+01  0.00000e+00  3.00763e-01 
 4.75174e-03  1.32727e-03  1.05001e-20  3.47944e+00  1.00806e-04  3.59392e+02  3.60051e+02  4.53228e+00  4.54967e+00  3.00700e-02  6.07111e+01  3.45722e+02  7.59425e+00 -1.84291e+05  1.86859e+03  0.00000e+00 -1.82414e+05  2.11598e+05  2.91841e+04  3.00668e-02  1.00000e+00 -6.08970e+01  0.00000e+00  3.17533e-01 
 4.82366e-03  1.56534e-03  0.00000e+00  3.47944e+00  1.09370e-04  3.59412e+02  3.60051e+02  4.52892e+00  4.54807e+00  3.36368e-02  5.96987e+01  3.18650e+02  8.29490e+01 -1.82896e+05  1.72178e+03  0.00000e+00 -1.81091e+05  1.71451e+05 -9.63945e+03  3.36342e-02  1.00000e+00 -5.98871e+01  0.00000e+00  3.38452e-01 
 4.90611e-03  1.80349e-03  8.81027e-21  3.47944e+00  1.17521e-04  3.59436e+02  3.60050e+02  4.52493e+00  4.54572e+00  3.79075e-02  5.96129e+01  2.96548e+02  5.28608e+02 -1.86413e+05  1.60167e+03  0.00000e+00 -1.84283e+05  1.41394e+05 -4.28894e+04  3.79053e-02  1.00000e+00 -5.98080e+01  0.00000e+00  3.64058e-01 
 4.99859e-03  2.04170e-03  0.00000e+00  3.47944e+00  1.25213e-04  3.59462e+02  3.60050e+02  4.52026e+00  4.54257e+00  4.29573e-02  6.02426e+01  2.78332e+02  2.26803e+03 -1.94351e+05  1.50251e+03  0.00000e+00 -1.90581e+05  1.18359e+05 -7.22216e+04  4.29557e-02  1.00000e+00 -6.04485e+01  0.00000e+00  3.95014e-01 
 5.10055e-03  2.27996e-03  7.58893e-21  3.47944e+00  1.32313e-04  3.59492e+02  3.60050e+02  4.51487e+00  4.53852e+00  4.88702e-02  6.14752e+01  2.63396e+02  7.17738e+03 -2.06818e+05  1.42088e+03  0.00000e+00 -1.98220e+05  1.00485e+05 -9.77349e+04  4.88696e-02  1.00000e+00 -6.16961e+01  0.00000e+00  4.32119e-01 
 5.21143e-03  2.51826e-03  7.09702e-21  3.47944e+00  1.38633e-04  3.59524e+02  3.60050e+02  4.50869e+00  4.53349e+00  5.57060e-02  6.32417e+01  2.51388e+02  1.79009e+04 -2.24275e+05  1.35465e+03  0.00000e+00 -2.05019e+05  8.65701e+04 -1.18449e+05  5.57059e-02  1.00000e+00 -6.34822e+01  0.00000e+00  4.76429e-01 
 5.33068e-03  2.75659e-03  1.33300e-20  3.47944e+00  1.43993e-04  3.59558e+02  3.60050e+02  4.50164e+00  4.52735e+00  6.35787e-02  6.54619e+01  2.42031e+02  3.70430e+04 -2.47720e+05  1.30251e+03  0.00000e+00 -2.09374e+05  7.56103e+04 -1.33764e+05  6.35783e-02  1.00000e+00 -6.57275e+01  0.00000e+00  5.29068e-01 
 5.45775e-03  2.99495e-03  1.25651e-20  3.47944e+00  1.48274e-04  3.59593e+02  3.60050e+02  4.49365e+00  4.52001e+00  7.25555e-02  6.74650e+01  2.35044e+02  6.64286e+04 -2.78237e+05  1.26303e+03  0.00000e+00 -2.10545e+05  6.63288e+04 -1.44217e+05  7.25577e-02  1.00000e+00 -6.77594e+01  0.00000e+00  5.91437e-01 
 5.59212e-03  3.23333e-03  0.00000e+00  3.47944e+00  1.51445e-04  3.59630e+02  3.60050e+02  4.48456e+00  4.51155e+00  8.26730e-02  6.96401e+01  2.30122e+02  1.06928e+05 -3.17009e+05  1.23591e+03  0.00000e+00 -2.08845e+05  5.88471e+04 -1.49998e+05  8.26810e-02  1.00000e+00 -6.99696e+01  0.00000e+00  6.65128e-01 
 5.73326e-03  3.47172e-03  0.00000e+00  3.47944e+00  1.53574e-04  3.59668e+02  3.60050e+02  4.47945e+00  4.50838e+00  9.39720e-02  7.18937e+01  2.26931e+02  1.59765e+05 -3.65604e+05  1.21037e+03  0.00000e+00 -2.04628e+05  5.27265e+04 -1.51902e+05  9.39848e-02  1.00000e+00 -7.22657e+01  0.00000e+00  7.53578e-01 
 5.88069e-03  3.71014e-03 -5.35987e-21  3.47944e+00  1.54805e-04  3.59705e+02  3.60050e+02  4.46755e+00  4.49642e+00  1.06459e-01  7.38102e+01  2.25128e+02  2.25745e+05 -4.25389e+05  1.19818e+03  0.00000e+00 -1.98446e+05  4.74274e+04 -1.51018e+05  1.06475e-01  1.00000e+00 -7.42314e+01  0.00000e+00  8.59232e-01 
 6.03395e-03  3.94857e-03  5.10973e-21  3.47944e+00  1.55313e-04  3.59742e+02  3.60050e+02  4.45408e+00  4.48256e+00  1.20140e-01  7.52384e+01  2.24391e+02  3.04640e+05 -4.97559e+05  1.19136e+03  0.00000e+00 -1.91728e+05  4.27284e+04 -1.48999e+05  1.20154e-01  1.00000e+00 -7.57167e+01  0.00000e+00  9.83220e-01 
 6.19261e-03  4.18701e-03  0.00000e+00  3.47944e+00  1.55270e-04  3.59778e+02  3.60050e+02  4.43873e+00  4.46664e+00  1.34910e-01  7.59273e+01  2.24453e+02  3.97449e+05 -5.83249e+05  1.18841e+03  0.00000e+00 -1.84611e+05  3.84408e+04 -1.46170e+05  1.34921e-01  1.00000e+00 -7.64699e+01  0.00000e+00  1.12906e+00 
 6.35626e-03  4.42546e-03  0.00000e+00  3.47944e+00  1.54833e-04  3.59812e+02  3.60050e+02  4.42122e+00  4.44844e+00  1.50656e-01  7.56713e+01  2.25086e+02  5.04985e+05 -6.83476e+05  1.18801e+03  0.00000e+00 -1.77303e+05  3.44374e+04 -1.42865e+05  1.50667e-01  1.00000e+00 -7.62854e+01  0.00000e+00  1.30033e+00 
 6.52453e-03  4.66392e-03 -8.96437e-21  3.47944e+00  1.54137e-04  3.59845e+02  3.60050e+02  4.40128e+00  4.42773e+00  1.67255e-01  7.43321e+01  2.26104e+02  6.27874e+05 -7.99047e+05  1.18920e+03  0.00000e+00 -1.69984e+05  3.06456e+04 -1.39338e+05  1.67263e-01  1.00000e+00 -7.50242e+01  0.00000e+00  1.50103e+00 
 6.69707e-03  4.90238e-03  1.72236e-20  3.47944e+00  1.53287e-04  3.59875e+02  3.60050e+02  4.37859e+00  4.40421e+00  1.84519e-01  7.18344e+01  2.27357e+02  7.66506e+05 -9.30339e+05  1.19096e+03  0.00000e+00 -1.62642e+05  2.70341e+04 -1.35608e+05  1.84524e-01  1.00000e+00 -7.26102e+01  0.00000e+00  1.73569e+00 
 6.87356e-03  5.14086e-03  8.28595e-21  3.47944e+00  1.52370e-04  3.59903e+02  3.60050e+02  4.35283e+00  4.37757e+00  2.02239e-01  6.81845e+01  2.28726e+02  9.20602e+05 -1.07719e+06  1.19247e+03  0.00000e+00 -1.55399e+05  2.35971e+04 -1.31802e+05  2.02242e-01  1.00000e+00 -6.90486e+01  0.00000e+00  2.00885e+00 
 7.05370e-03  5.37934e-03 -1.59677e-20  3.47944e+00  1.51446e-04  3.59929e+02  3.60050e+02  4.32370e+00  4.34754e+00  2.20208e-01  6.34830e+01  2.30122e+02  1.08965e+06 -1.23920e+06  1.19318e+03  0.00000e+00 -1.48361e+05  2.03481e+04 -1.28013e+05  2.20212e-01  1.00000e+00 -6.44384e+01  0.00000e+00  2.32581e+00 
 7.23722e-03  5.61783e-03  0.00000e+00  3.47944e+00  1.50559e-04  3.59951e+02  3.60051e+02  4.29088e+00  4.31381e+00  2.38265e-01  5.78988e+01  2.31479e+02  1.27244e+06 -1.41568e+06  1.19258e+03  0.00000e+00 -1.42048e+05  1.73053e+04 -1.24742e+05  2.38266e-01  1.00000e+00 -5.89474e+01  0.00000e+00  2.69183e+00 
 7.42387e-03  5.85632e-03  0.00000e+00  3.47944e+00  1.49722e-04  3.59972e+02  3.60051e+02  4.25414e+00  4.27616e+00  2.56211e-01  5.16534e+01  2.32773e+02  1.46839e+06 -1.60595e+06  1.19023e+03  0.00000e+00 -1.36371e+05  1.44945e+04 -1.21876e+05  2.56210e-01  1.00000e+00 -5.27959e+01  0.00000e+00  3.11451e+00 
 7.61342e-03  6.09482e-03  0.00000e+00  3.47944e+00  1.48937e-04  3.59989e+02  3.60051e+02  4.21318e+00  4.23430e+00  2.73866e-01  4.49767e+01  2.34000e+02  1.67573e+06 -1.80901e+06  1.18627e+03  0.00000e+00 -1.32091e+05  1.19312e+04 -1.20160e+05  2.73880e-01  1.00000e+00 -4.62127e+01  0.00000e+00  3.59945e+00 
 7.80566e-03  6.33332e-03  0.00000e+00  3.47944e+00  1.48174e-04  3.60005e+02  3.60051e+02  4.16787e+00  4.18809e+00  2.91115e-01  3.81178e+01  2.35205e+02  1.89472e+06 -2.02514e+06  1.18065e+03  0.00000e+00 -1.29237e+05  9.62953e+03 -1.19607e+05  2.91149e-01  1.00000e+00 -3.94464e+01  0.00000e+00  4.15706e+00 
 8.00039e-03  6.57182e-03  0.00000e+00  3.47944e+00  1.47382e-04  3.60018e+02  3.60051e+02  4.11783e+00  4.13718e+00  3.07730e-01  3.12897e+01  2.36471e+02  2.12567e+06 -2.25413e+06  1.17372e+03  0.00000e+00 -1.27284e+05  7.59441e+03 -1.19689e+05  3.07766e-01  1.00000e+00 -3.27094e+01  0.00000e+00  4.79887e+00 
 8.19744e-03  6.81033e-03  1.31016e-20  3.47944e+00  1.46495e-04  3.60029e+02  3.60051e+02  4.06292e+00  4.08139e+00  3.23760e-01  2.46817e+01  2.37904e+02  2.37052e+06 -2.49931e+06  1.16610e+03  0.00000e+00 -1.27622e+05  5.81545e+03 -1.21807e+05  3.23781e-01  1.00000e+00 -2.61921e+01  0.00000e+00  5.54026e+00 
 8.39664e-03  7.04884e-03  0.00000e+00  3.47944e+00  1.45416e-04  3.60039e+02  3.60051e+02  4.00250e+00  4.02008e+00  3.39071e-01  1.84189e+01  2.39669e+02  2.63463e+06 -2.76538e+06  1.15837e+03  0.00000e+00 -1.29585e+05  4.27617e+03 -1.25308e+05  3.39077e-01  1.00000e+00 -2.00208e+01  0.00000e+00  6.40495e+00 
 8.59784e-03  7.28736e-03  0.00000e+00  3.47944e+00  1.44049e-04  3.60046e+02  3.60051e+02  3.93620e+00  3.95285e+00  3.53846e-01  1.25747e+01  2.41946e+02  2.92489e+06 -3.06180e+06  1.15111e+03  0.00000e+00 -1.35766e+05  2.94874e+03 -1.32817e+05  3.53842e-01  1.00000e+00 -1.42716e+01  0.00000e+00  7.42857e+00 
 8.80092e-03  7.52587e-03  0.00000e+00  3.47944e+00  1.42242e-04  3.60053e+02  3.60052e+02  3.86294e+00  3.87863e+00  3.67989e-01  7.14468e+00  2.45020e+02  3.25404e+06 -3.40122e+06  1.14486e+03  0.00000e+00 -1.46041e+05  1.79939e+03 -1.44241e+05  3.67966e-01  1.00000e+00 -8.94292e+00  0.00000e+00  8.66316e+00 
 9.00573e-03  7.76439e-03 -1.17014e-20  3.47944e+00  1.39853e-04  3.60059e+02  3.60052e+02  3.78123e+00  3.79589e+00  3.81750e-01  2.05429e+00  2.49208e+02  3.63920e+06 -3.80529e+06  1.14075e+03  0.00000e+00 -1.64949e+05  7.82287e+02 -1.64167e+05  3.81701e-01  1.00000e+00 -3.96539e+00  0.00000e+00  1.01873e+01 
 9.21216e-03  8.00291e-03  0.00000e+00  3.47944e+00  1.36651e-04  3.60063e+02  3.60052e+02  3.69022e+00  3.70375e+00  3.95133e-01 -5.70749e+00  2.55049e+02  4.11373e+06 -4.30944e+06  1.13938e+03  0.00000e+00 -1.94571e+05 -3.51439e+02 -1.94923e+05  3.95053e-01  1.00000e+00  1.80157e+00  0.00000e+00  1.21399e+01 
 9.42012e-03  8.24144e-03  0.00000e+00  3.47944e+00  1.32410e-04  3.60067e+02  3.60053e+02  3.58411e+00  3.59646e+00  4.08387e-01 -1.66100e+01  2.63218e+02  4.72680e+06 -4.97118e+06  1.14129e+03  0.00000e+00 -2.43230e+05 -2.42399e+03 -2.45654e+05  4.08287e-01  1.00000e+00  1.24441e+01  0.00000e+00  1.47447e+01 
 9.62949e-03  8.47996e-03  0.00000e+00  3.47944e+00  1.26708e-04  3.60072e+02  3.60053e+02  3.46225e+00  3.47294e+00  4.21443e-01 -3.13360e+01  2.75065e+02  5.57602e+06 -5.89989e+06  1.15247e+03  0.00000e+00 -3.22712e+05 -5.29497e+03 -3.28007e+05  4.21339e-01  1.00000e+00  2.68435e+01  0.00000e+00  1.84207e+01 
 9.84019e-03  8.71849e-03  0.00000e+00  3.47944e+00  1.19121e-04  3.60080e+02  3.60053e+02  3.30721e+00  3.31647e+00  4.34711e-01 -5.88618e+01  2.92588e+02  6.83568e+06 -7.30527e+06  1.17125e+03  0.00000e+00 -4.68420e+05 -1.09720e+04 -4.79392e+05  4.34638e-01  1.00000e+00  5.39413e+01  0.00000e+00  2.39599e+01 
 1.00521e-02  8.95702e-03  0.00000e+00  3.47944e+00  1.08706e-04  3.60096e+02  3.60054e+02  3.12713e+00  3.13504e+00  4.48057e-01 -1.31122e+02  3.20625e+02  9.05420e+06 -9.75240e+06  1.20480e+03  0.00000e+00 -6.97002e+05 -2.71570e+04 -7.24159e+05  4.48015e-01  1.00000e+00  1.25583e+02  0.00000e+00  3.38712e+01 
 1.02653e-02  9.19555e-03  0.00000e+00  3.47944e+00  9.49067e-05  3.60147e+02  3.60055e+02  2.84564e+00  2.85197e+00  4.62521e-01 -4.12200e+02  3.67247e+02  1.36857e+07 -1.47032e+07  1.24465e+03  0.00000e+00 -1.01628e+06 -9.73482e+04 -1.11362e+06  4.62493e-01  1.00000e+00  4.05736e+02  0.00000e+00  5.58641e+01 
 1.04795e-02  9.43408e-03  0.00000e+00  3.47944e+00  7.76485e-05  3.60424e+02  3.60056e+02  2.40763e+00  2.41056e+00  4.82518e-01 -5.76854e+03  4.48879e+02  2.76408e+07 -2.77960e+07  1.33396e+03  3.68429e+06  3.53045e+06 -3.67609e+06 -1.45635e+05  4.82478e-01  1.00000e+00  5.76066e+03  3.31640e+03  1.39136e+02 
