# Code_Saturne plot output (1D profile)
#
# Iteration output: 13568
# Time output:      1.14201e+01
#
#COLUMN_TITLES: Distance | X | Y | Z | diameter_Field2 | temp_Field1 | temp_Field2 | Velocity_Field1[Z] | Velocity_Field2[Z] | vol_f_Field2 | mass_trans_Field1 | Xd_Field2 | BK | COAL | COMP | NUCL | W1 | MT | SMBR | ALPBB | CONDNUM | GAMA | GAMANUC | epsilon_Field1
 4.56474e-03  1.39645e-04  0.00000e+00  3.47944e+00  8.36948e-04  3.60246e+02  3.60031e+02  9.66397e+00  9.81569e+00  7.30387e-01 -3.90060e+01  4.15465e+01  1.30032e+05 -1.47814e+05  9.93884e+02  0.00000e+00 -1.67883e+04 -8.58902e+02 -1.76472e+04  7.43733e-01  1.00000e+00  3.90355e+01  0.00000e+00  1.44779e+01 
 4.57812e-03  3.76525e-04  4.25872e-21  3.47944e+00  8.37330e-04  3.60246e+02  3.60032e+02  9.65278e+00  9.80427e+00  7.39161e-01 -3.90701e+01  4.15277e+01  1.25993e+05 -1.48012e+05  9.92131e+02  0.00000e+00 -2.10262e+04 -8.49998e+02 -2.18762e+04  7.52391e-01  1.00000e+00  3.90996e+01  0.00000e+00  1.46181e+01 
 4.60371e-03  6.13858e-04  0.00000e+00  3.47944e+00  8.36356e-04  3.60245e+02  3.60032e+02  9.63622e+00  9.78669e+00  7.47511e-01 -3.91109e+01  4.15763e+01  1.22812e+05 -1.48467e+05  9.90615e+02  0.00000e+00 -2.46650e+04 -8.42836e+02 -2.55079e+04  7.60456e-01  1.00000e+00  3.91405e+01  0.00000e+00  1.48366e+01 
 4.64138e-03  8.51483e-04  0.00000e+00  3.47944e+00  8.34577e-04  3.60244e+02  3.60032e+02  9.61549e+00  9.76463e+00  7.58543e-01 -3.91216e+01  4.16653e+01  1.18659e+05 -1.49528e+05  9.86256e+02  0.00000e+00 -2.98831e+04 -8.33315e+02 -3.07164e+04  7.71015e-01  1.00000e+00  3.91512e+01  0.00000e+00  1.51178e+01 
 4.69084e-03  1.08931e-03  0.00000e+00  3.47944e+00  8.31634e-04  3.60243e+02  3.60033e+02  9.59320e+00  9.74075e+00  7.69629e-01 -3.90481e+01  4.18131e+01  1.15031e+05 -1.50918e+05  9.80101e+02  0.00000e+00 -3.49074e+04 -8.23832e+02 -3.57312e+04  7.81241e-01  1.00000e+00  3.90777e+01  0.00000e+00  1.54761e+01 
 4.75174e-03  1.32727e-03  1.05001e-20  3.47944e+00  8.27305e-04  3.60242e+02  3.60033e+02  9.57124e+00  9.71720e+00  7.77691e-01 -3.88758e+01  4.20323e+01  1.13733e+05 -1.52240e+05  9.73276e+02  0.00000e+00 -3.75333e+04 -8.17769e+02 -3.83511e+04  7.87783e-01  1.00000e+00  3.89055e+01  0.00000e+00  1.59232e+01 
 4.82366e-03  1.56534e-03  0.00000e+00  3.47944e+00  8.21112e-04  3.60241e+02  3.60034e+02  9.55149e+00  9.69591e+00  7.76586e-01 -3.86822e+01  4.23497e+01  1.18282e+05 -1.52926e+05  9.69987e+02  0.00000e+00 -3.36740e+04 -8.23457e+02 -3.44975e+04  7.84496e-01  1.00000e+00  3.87120e+01  0.00000e+00  1.64472e+01 
 4.90611e-03  1.80349e-03  8.81027e-21  3.47944e+00  8.13526e-04  3.60239e+02  3.60034e+02  9.53327e+00  9.67564e+00  7.72479e-01 -3.85153e+01  4.27451e+01  1.25018e+05 -1.53962e+05  9.66339e+02  0.00000e+00 -2.79771e+04 -8.34197e+02 -2.88113e+04  7.78375e-01  1.00000e+00  3.85453e+01  0.00000e+00  1.70359e+01 
 4.99859e-03  2.04170e-03  0.00000e+00  3.47944e+00  8.04852e-04  3.60237e+02  3.60035e+02  9.51406e+00  9.65411e+00  7.69185e-01 -3.84034e+01  4.32062e+01  1.31670e+05 -1.56228e+05  9.62925e+02  0.00000e+00 -2.35957e+04 -8.46250e+02 -2.44420e+04  7.73485e-01  1.00000e+00  3.84338e+01  0.00000e+00  1.76716e+01 
 5.10055e-03  2.27996e-03  7.58893e-21  3.47944e+00  7.95098e-04  3.60235e+02  3.60036e+02  9.49391e+00  9.63144e+00  7.66177e-01 -3.83182e+01  4.37368e+01  1.38551e+05 -1.59778e+05  9.61146e+02  0.00000e+00 -2.02665e+04 -8.59694e+02 -2.11261e+04  7.69164e-01  1.00000e+00  3.83491e+01  0.00000e+00  1.83221e+01 
 5.21143e-03  2.51826e-03  7.09702e-21  3.47944e+00  7.84362e-04  3.60233e+02  3.60037e+02  9.47386e+00  9.60876e+00  7.62986e-01 -3.82497e+01  4.43362e+01  1.45974e+05 -1.64473e+05  9.63535e+02  0.00000e+00 -1.75354e+04 -8.74794e+02 -1.84102e+04  7.64980e-01  1.00000e+00  3.82811e+01  0.00000e+00  1.89686e+01 
 5.33068e-03  2.75659e-03  1.33300e-20  3.47944e+00  7.72484e-04  3.60231e+02  3.60038e+02  9.45500e+00  9.58715e+00  7.58394e-01 -3.82231e+01  4.50186e+01  1.54845e+05 -1.70283e+05  9.67680e+02  0.00000e+00 -1.44706e+04 -8.93843e+02 -1.53644e+04  7.59741e-01  1.00000e+00  3.82551e+01  0.00000e+00  1.96030e+01 
 5.45775e-03  2.99495e-03  1.25651e-20  3.47944e+00  7.59651e-04  3.60228e+02  3.60040e+02  9.43628e+00  9.56558e+00  7.52942e-01 -3.82439e+01  4.57800e+01  1.64997e+05 -1.77276e+05  9.74903e+02  0.00000e+00 -1.13045e+04 -9.16561e+02 -1.22211e+04  7.53901e-01  1.00000e+00  3.82766e+01  0.00000e+00  2.02501e+01 
 5.59212e-03  3.23333e-03  0.00000e+00  3.47944e+00  7.46042e-04  3.60226e+02  3.60041e+02  9.41693e+00  9.54321e+00  7.47785e-01 -3.83058e+01  4.66161e+01  1.75853e+05 -1.85568e+05  9.85121e+02  0.00000e+00 -8.72992e+03 -9.41592e+02 -9.67151e+03  7.48534e-01  1.00000e+00  3.83393e+01  0.00000e+00  2.09558e+01 
 5.73326e-03  3.47172e-03  0.00000e+00  3.47944e+00  7.31705e-04  3.60223e+02  3.60043e+02  9.39675e+00  9.51996e+00  7.42789e-01 -3.84106e+01  4.75307e+01  1.87621e+05 -1.95299e+05  9.97902e+02  0.00000e+00 -6.68018e+03 -9.69380e+02 -7.64956e+03  7.43428e-01  1.00000e+00  3.84450e+01  0.00000e+00  2.17176e+01 
 5.88069e-03  3.71014e-03 -5.35987e-21  3.47944e+00  7.16715e-04  3.60220e+02  3.60045e+02  9.37545e+00  9.49547e+00  7.37829e-01 -3.85532e+01  4.85263e+01  2.00455e+05 -2.06694e+05  1.01300e+03  0.00000e+00 -5.22561e+03 -1.00015e+03 -6.22576e+03  7.38435e-01  1.00000e+00  3.85885e+01  0.00000e+00  2.25187e+01 
 6.03395e-03  3.94857e-03  5.10973e-21  3.47944e+00  7.01137e-04  3.60218e+02  3.60048e+02  9.35274e+00  9.46949e+00  7.33111e-01 -3.87327e+01  4.96063e+01  2.14375e+05 -2.19840e+05  1.03153e+03  0.00000e+00 -4.43269e+03 -1.03381e+03 -5.46650e+03  7.33731e-01  1.00000e+00  3.87690e+01  0.00000e+00  2.33747e+01 
 6.19261e-03  4.18701e-03  0.00000e+00  3.47944e+00  6.85092e-04  3.60215e+02  3.60051e+02  9.32831e+00  9.44177e+00  7.29193e-01 -3.89422e+01  5.07704e+01  2.29155e+05 -2.34815e+05  1.05420e+03  0.00000e+00 -4.60601e+03 -1.06956e+03 -5.67557e+03  7.29806e-01  1.00000e+00  3.89796e+01  0.00000e+00  2.43178e+01 
 6.35626e-03  4.42546e-03  0.00000e+00  3.47944e+00  6.68701e-04  3.60212e+02  3.60054e+02  9.30228e+00  9.41243e+00  7.26158e-01 -3.91682e+01  5.20177e+01  2.44800e+05 -2.51830e+05  1.08145e+03  0.00000e+00 -5.94922e+03 -1.10698e+03 -7.05620e+03  7.26708e-01  1.00000e+00  3.92068e+01  0.00000e+00  2.53529e+01 
 6.52453e-03  4.66392e-03 -8.96437e-21  3.47944e+00  6.52046e-04  3.60209e+02  3.60059e+02  9.27285e+00  9.37977e+00  7.23815e-01 -3.94011e+01  5.33501e+01  2.61248e+05 -2.71592e+05  1.10777e+03  0.00000e+00 -9.23534e+03 -1.14603e+03 -1.03814e+04  7.24284e-01  1.00000e+00  3.94409e+01  0.00000e+00  2.64150e+01 
 6.69707e-03  4.90238e-03  1.72236e-20  3.47944e+00  6.35325e-04  3.60205e+02  3.60065e+02  9.24231e+00  9.34609e+00  7.21662e-01 -3.96067e+01  5.47588e+01  2.78790e+05 -2.94347e+05  1.11968e+03  0.00000e+00 -1.44378e+04 -1.18628e+03 -1.56241e+04  7.22061e-01  1.00000e+00  3.96477e+01  0.00000e+00  2.74588e+01 
 6.87356e-03  5.14086e-03  8.28595e-21  3.47944e+00  6.18613e-04  3.60202e+02  3.60072e+02  9.21195e+00  9.31252e+00  7.19074e-01 -3.97744e+01  5.62442e+01  2.98180e+05 -3.20152e+05  1.12389e+03  0.00000e+00 -2.08485e+04 -1.22849e+03 -2.20770e+04  7.19402e-01  1.00000e+00  3.98167e+01  0.00000e+00  2.84889e+01 
 7.05370e-03  5.37934e-03 -1.59677e-20  3.47944e+00  6.02052e-04  3.60199e+02  3.60081e+02  9.18373e+00  9.28075e+00  7.16936e-01 -3.98786e+01  5.77992e+01  3.18397e+05 -3.49543e+05  1.12770e+03  0.00000e+00 -3.00184e+04 -1.27003e+03 -3.12884e+04  7.17182e-01  1.00000e+00  3.99222e+01  0.00000e+00  2.95153e+01 
 7.23722e-03  5.61783e-03  0.00000e+00  3.47944e+00  5.85958e-04  3.60195e+02  3.60092e+02  9.15505e+00  9.24801e+00  7.15543e-01 -3.98807e+01  5.93970e+01  3.38436e+05 -3.83315e+05  1.11612e+03  0.00000e+00 -4.37627e+04 -1.30832e+03 -4.50710e+04  7.15701e-01  1.00000e+00  3.99255e+01  0.00000e+00  3.05013e+01 
 7.42387e-03  5.85632e-03  0.00000e+00  3.47944e+00  5.70393e-04  3.60192e+02  3.60107e+02  9.09102e+00  9.17933e+00  7.13148e-01 -3.98369e+01  6.10315e+01  3.59799e+05 -4.21986e+05  1.10163e+03  0.00000e+00 -6.10848e+04 -1.34810e+03 -6.24329e+04  7.13205e-01  1.00000e+00  3.98829e+01  0.00000e+00  3.12816e+01 
 7.61342e-03  6.09482e-03  0.00000e+00  3.47944e+00  5.55455e-04  3.60189e+02  3.60127e+02  9.01860e+00  9.10203e+00  7.10395e-01 -3.97215e+01  6.26917e+01  3.81595e+05 -4.66079e+05  1.10972e+03  0.00000e+00 -8.33744e+04 -1.38709e+03 -8.47615e+04  7.10310e-01  1.00000e+00  3.97687e+01  0.00000e+00  3.17518e+01 
 7.80566e-03  6.33332e-03  0.00000e+00  3.47944e+00  5.41441e-04  3.60186e+02  3.60155e+02  8.93915e+00  9.01710e+00  7.09095e-01 -3.94930e+01  6.43419e+01  4.00770e+05 -5.16668e+05  1.22012e+03  0.00000e+00 -1.14678e+05 -1.41939e+03 -1.16097e+05  7.08789e-01  1.00000e+00  3.95412e+01  0.00000e+00  3.18716e+01 
 8.00039e-03  6.57182e-03  0.00000e+00  3.47944e+00  5.28469e-04  3.60182e+02  3.60200e+02  8.84481e+00  8.91560e+00  7.07874e-01 -3.92314e+01  6.59662e+01  4.17782e+05 -5.74372e+05  1.87152e+03  0.00000e+00 -1.54718e+05 -1.44982e+03 -1.56168e+05  7.07283e-01  1.00000e+00  3.92804e+01  0.00000e+00  3.14897e+01 
 8.19744e-03  6.81033e-03  1.31016e-20  3.47944e+00  5.17247e-04  3.60179e+02  3.60287e+02  8.77173e+00  8.83331e+00  7.09189e-01 -3.90963e+01  6.74857e+01  4.26385e+05 -6.39898e+05  5.03601e+03  0.00000e+00 -2.08477e+05 -1.47689e+03 -2.09954e+05  7.08381e-01  1.00000e+00  3.91457e+01  0.00000e+00  3.04516e+01 
 8.39664e-03  7.04884e-03  0.00000e+00  3.47944e+00  5.08092e-04  3.60176e+02  3.60467e+02  8.73887e+00  8.79145e+00  7.15141e-01 -3.94946e+01  6.88867e+01  4.21794e+05 -7.12672e+05  1.44540e+04  0.00000e+00 -2.76423e+05 -1.51078e+03 -2.77934e+05  7.14269e-01  1.00000e+00  3.95440e+01  0.00000e+00  2.89008e+01 
 8.59784e-03  7.28736e-03  0.00000e+00  3.47944e+00  5.01388e-04  3.60171e+02  3.60772e+02  8.74549e+00  8.79191e+00  7.30438e-01 -4.03166e+01  7.01215e+01  3.97871e+05 -7.90630e+05  2.85477e+04  0.00000e+00 -3.64211e+05 -1.53644e+03 -3.65748e+05  7.29694e-01  1.00000e+00  4.03655e+01  0.00000e+00  2.73050e+01 
 8.80092e-03  7.52587e-03  0.00000e+00  3.47944e+00  4.95970e-04  3.60167e+02  3.61199e+02  8.78410e+00  8.82770e+00  7.49416e-01 -4.11664e+01  7.13249e+01  3.68093e+05 -8.64502e+05  4.11145e+04  0.00000e+00 -4.55294e+05 -1.55412e+03 -4.56848e+05  7.48553e-01  1.00000e+00  4.12143e+01  0.00000e+00  2.61151e+01 
 9.00573e-03  7.76439e-03 -1.17014e-20  3.47944e+00  4.90366e-04  3.60162e+02  3.61789e+02  8.82087e+00  8.86233e+00  7.66480e-01 -4.27572e+01  7.27394e+01  3.46071e+05 -9.31688e+05  5.10350e+04  0.00000e+00 -5.34582e+05 -1.61087e+03 -5.36193e+05  7.64259e-01  1.00000e+00  4.28045e+01  0.00000e+00  2.55382e+01 
 9.21216e-03  8.00291e-03  0.00000e+00  3.47944e+00  4.86666e-04  3.60156e+02  3.62508e+02  8.85928e+00  8.89967e+00  8.02188e-01 -4.32104e+01  7.40110e+01  3.01093e+05 -1.00146e+06  4.75891e+04  0.00000e+00 -6.52775e+05 -1.58932e+03 -6.54364e+05  7.96265e-01  1.00000e+00  4.32575e+01  0.00000e+00  2.55752e+01 
 9.42012e-03  8.24144e-03  0.00000e+00  3.47944e+00  4.92769e-04  3.60149e+02  3.63343e+02  8.88186e+00  8.91760e+00  8.52939e-01 -4.71395e+01  7.38973e+01  2.35893e+05 -1.02949e+06  4.07449e+04  0.00000e+00 -7.52851e+05 -1.65291e+03 -7.54503e+05  8.40862e-01  1.00000e+00  4.71978e+01  0.00000e+00  2.65415e+01 
 9.62949e-03  8.47996e-03  0.00000e+00  3.47944e+00  5.12290e-04  3.60140e+02  3.64412e+02  8.98596e+00  9.01091e+00  8.78724e-01 -4.74950e+01  7.20406e+01  1.79339e+05 -9.66729e+05  4.25194e+04  0.00000e+00 -7.44870e+05 -1.58336e+03 -7.46453e+05  8.77979e-01  1.00000e+00  4.75626e+01  0.00000e+00  2.85752e+01 
 9.84019e-03  8.71849e-03  0.00000e+00  3.47944e+00  4.91948e-04  3.60132e+02  3.65908e+02  8.80070e+00  8.82557e+00  8.68094e-01 -4.58777e+01  7.63654e+01  2.05722e+05 -9.83829e+05  5.10623e+04  0.00000e+00 -7.27045e+05 -1.60401e+03 -7.28649e+05  8.68066e-01  1.00000e+00  4.59435e+01  0.00000e+00  3.16556e+01 
 1.00521e-02  8.95702e-03  0.00000e+00  3.47944e+00  4.85472e-04  3.60129e+02  3.68247e+02  8.29755e+00  8.31659e+00  8.69722e-01 -5.06027e+01  7.94121e+01  2.21505e+05 -9.78271e+05  5.43827e+04  0.00000e+00 -7.02383e+05 -1.84219e+03 -7.04225e+05  8.64297e-01  1.00000e+00  5.06658e+01  0.00000e+00  3.62032e+01 
 1.02653e-02  9.19555e-03  0.00000e+00  3.47944e+00  4.94851e-04  3.60128e+02  3.72522e+02  7.15368e+00  7.21562e+00  8.71787e-01 -6.21158e+01  8.12855e+01  2.19029e+05 -8.53402e+05  4.40942e+04  0.00000e+00 -5.90278e+05 -2.30430e+03 -5.92583e+05  8.66753e-01  1.00000e+00  6.21754e+01  0.00000e+00  4.43019e+01 
 1.04795e-02  9.43408e-03  0.00000e+00  3.47944e+00  5.94132e-04  3.60137e+02  3.85922e+02  1.82917e+00  1.89014e+00  8.83418e-01 -8.64569e+01  7.53504e+01  1.50650e+05 -6.56390e+05  7.79711e+04  6.76341e+05 -4.27769e+05 -3.14631e+03 -4.30915e+05  8.77874e-01  1.00000e+00  8.65018e+01  0.00000e+00  9.03360e+01 
