# Code_Saturne plot output (1D profile)
#
# Iteration output: 2276
# Time output:      2.30025e+01
#
#COLUMN_TITLES: Distance | X | Y | Z | diameter_Field2 | temp_Field1 | temp_Field2 | Velocity_Field1[Z] | Velocity_Field2[Z] | vol_f_Field2 | mass_trans_Field1 | Xd_Field2 | BK | COAL | COMP | NUCL | W1 | MT | SMBR | ALPBB | CONDNUM | GAMA | GAMANUC | epsilon_Field1
 4.56474e-03  1.39645e-04  0.00000e+00  3.47944e+00  3.48863e-05  3.59088e+02  3.60049e+02  4.29045e+00  4.29395e+00  1.50148e-02  1.98065e+02  9.99061e+02  9.48136e-27 -9.82639e+05  5.12569e+03  0.00000e+00 -9.77513e+05  5.17440e+06  4.19689e+06  1.50171e-02  1.00000e+00 -1.98053e+02  0.00000e+00  4.21147e-01 
 4.57812e-03  3.76525e-04  4.25872e-21  3.47944e+00  5.23038e-05  3.59088e+02  3.60049e+02  4.29012e+00  4.29658e+00  1.57868e-02  1.17602e+02  6.66368e+02  9.09209e-10 -5.20954e+05  3.40954e+03  0.00000e+00 -5.17544e+05  1.94904e+06  1.43150e+06  1.57892e-02  1.00000e+00 -1.17595e+02  0.00000e+00  4.25335e-01 
 4.60371e-03  6.13858e-04  0.00000e+00  3.47944e+00  6.70460e-05  3.59092e+02  3.60049e+02  4.28877e+00  4.29812e+00  1.67924e-02  8.86924e+01  5.19846e+02  6.20152e-04 -3.65069e+05  2.65946e+03  0.00000e+00 -3.62409e+05  1.07805e+06  7.15637e+05  1.67951e-02  1.00000e+00 -8.86869e+01  0.00000e+00  4.33484e-01 
 4.64138e-03  8.51483e-04  0.00000e+00  3.47944e+00  7.94819e-05  3.59099e+02  3.60049e+02  4.28670e+00  4.29850e+00  1.81556e-02  7.59129e+01  4.38509e+02  3.60133e-01 -2.97710e+05  2.24353e+03  0.00000e+00 -2.95466e+05  7.19903e+05  4.24437e+05  1.81586e-02  1.00000e+00 -7.59081e+01  0.00000e+00  4.45724e-01 
 4.69084e-03  1.08931e-03  0.00000e+00  3.47944e+00  9.06394e-05  3.59110e+02  3.60049e+02  4.28388e+00  4.29788e+00  1.98828e-02  6.92674e+01  3.84530e+02  1.55661e+01 -2.63361e+05  1.96737e+03  0.00000e+00 -2.61378e+05  5.25991e+05  2.64612e+05  1.98859e-02  1.00000e+00 -6.92630e+01  0.00000e+00  4.62272e-01 
 4.75174e-03  1.32727e-03  1.05001e-20  3.47944e+00  1.01024e-04  3.59124e+02  3.60049e+02  4.28029e+00  4.29635e+00  2.20003e-02  6.57047e+01  3.45003e+02  1.91519e+02 -2.45357e+05  1.76497e+03  0.00000e+00 -2.43401e+05  4.04575e+05  1.61174e+05  2.20032e-02  1.00000e+00 -6.57005e+01  0.00000e+00  4.83421e-01 
 4.82366e-03  1.56534e-03  0.00000e+00  3.47944e+00  1.10859e-04  3.59142e+02  3.60049e+02  4.27594e+00  4.29393e+00  2.45404e-02  6.39875e+01  3.14395e+02  1.14432e+03 -2.37199e+05  1.60801e+03  0.00000e+00 -2.34447e+05  3.21890e+05  8.74433e+04  2.45429e-02  1.00000e+00 -6.39833e+01  0.00000e+00  5.09581e-01 
 4.90611e-03  1.80349e-03  8.81027e-21  3.47944e+00  1.20213e-04  3.59163e+02  3.60049e+02  4.27078e+00  4.29059e+00  2.75454e-02  6.35449e+01  2.89932e+02  4.29732e+03 -2.36029e+05  1.48231e+03  0.00000e+00 -2.30249e+05  2.62638e+05  3.23886e+04  2.75475e-02  1.00000e+00 -6.35406e+01  0.00000e+00  5.41262e-01 
 4.99859e-03  2.04170e-03  0.00000e+00  3.47944e+00  1.29064e-04  3.59186e+02  3.60049e+02  4.26480e+00  4.28630e+00  3.10628e-02  6.40833e+01  2.70049e+02  1.17167e+04 -2.40539e+05  1.37986e+03  0.00000e+00 -2.27442e+05  2.18767e+05 -8.67467e+03  3.10645e-02  1.00000e+00 -6.40788e+01  0.00000e+00  5.79108e-01 
 5.10055e-03  2.27996e-03  7.58893e-21  3.47944e+00  1.37358e-04  3.59213e+02  3.60049e+02  4.25794e+00  4.28099e+00  3.51478e-02  6.54410e+01  2.53743e+02  2.53946e+04 -2.50198e+05  1.29552e+03  0.00000e+00 -2.23508e+05  1.85520e+05 -3.79879e+04  3.51490e-02  1.00000e+00 -6.54363e+01  0.00000e+00  6.23888e-01 
 5.21143e-03  2.51826e-03  7.09702e-21  3.47944e+00  1.45058e-04  3.59243e+02  3.60049e+02  4.25016e+00  4.27460e+00  3.98593e-02  6.75024e+01  2.40274e+02  4.65650e+04 -2.64831e+05  1.22551e+03  0.00000e+00 -2.17040e+05  1.59789e+05 -5.72512e+04  3.98600e-02  1.00000e+00 -6.74975e+01  0.00000e+00  6.76530e-01 
 5.33068e-03  2.75659e-03  1.33300e-20  3.47944e+00  1.52185e-04  3.59274e+02  3.60049e+02  4.24137e+00  4.26705e+00  4.52605e-02  7.01539e+01  2.29022e+02  7.55546e+04 -2.84384e+05  1.16663e+03  0.00000e+00 -2.07663e+05  1.39401e+05 -6.82619e+04  4.52608e-02  1.00000e+00 -7.01485e+01  0.00000e+00  7.38132e-01 
 5.45775e-03  2.99495e-03  1.25651e-20  3.47944e+00  1.58820e-04  3.59308e+02  3.60049e+02  4.23151e+00  4.25829e+00  5.14165e-02  7.32669e+01  2.19453e+02  1.12029e+05 -3.08818e+05  1.11614e+03  0.00000e+00 -1.95673e+05  1.22802e+05 -7.28710e+04  5.14163e-02  1.00000e+00 -7.32611e+01  0.00000e+00  8.09984e-01 
 5.59212e-03  3.23333e-03  0.00000e+00  3.47944e+00  1.65106e-04  3.59344e+02  3.60049e+02  4.22046e+00  4.24825e+00  5.83906e-02  7.66854e+01  2.11099e+02  1.55309e+05 -3.37992e+05  1.07164e+03  0.00000e+00 -1.81611e+05  1.08871e+05 -7.27395e+04  5.83901e-02  1.00000e+00 -7.66790e+01  0.00000e+00  8.93601e-01 
 5.73326e-03  3.47172e-03  0.00000e+00  3.47944e+00  1.71223e-04  3.59381e+02  3.60049e+02  4.20810e+00  4.23683e+00  6.62454e-02  7.98272e+01  2.03557e+02  2.04505e+05 -3.71622e+05  1.03114e+03  0.00000e+00 -1.66086e+05  9.63235e+04 -6.97623e+04  6.62458e-02  1.00000e+00 -7.98201e+01  0.00000e+00  9.90734e-01 
 5.88069e-03  3.71014e-03 -5.35987e-21  3.47944e+00  1.77367e-04  3.59419e+02  3.60049e+02  4.19430e+00  4.22394e+00  7.50213e-02  8.22708e+01  1.96506e+02  2.58471e+05 -4.09135e+05  9.92943e+02  0.00000e+00 -1.49671e+05  8.46216e+04 -6.50491e+04  7.50227e-02  1.00000e+00 -8.22632e+01  0.00000e+00  1.10343e+00 
 6.03395e-03  3.94857e-03  5.10973e-21  3.47944e+00  1.83720e-04  3.59457e+02  3.60049e+02  4.17886e+00  4.20944e+00  8.47499e-02  8.42107e+01  1.89711e+02  3.15699e+05 -4.49800e+05  9.55829e+02  0.00000e+00 -1.33146e+05  7.40221e+04 -5.91235e+04  8.47515e-02  1.00000e+00 -8.42025e+01  0.00000e+00  1.23399e+00 
 6.19261e-03  4.18701e-03  0.00000e+00  3.47944e+00  1.90465e-04  3.59496e+02  3.60049e+02  4.16161e+00  4.19308e+00  9.54254e-02  8.54170e+01  1.82993e+02  3.74391e+05 -4.92525e+05  9.18922e+02  0.00000e+00 -1.17216e+05  6.43210e+04 -5.28949e+04  9.54276e-02  1.00000e+00 -8.54080e+01  0.00000e+00  1.38511e+00 
 6.35626e-03  4.42546e-03  0.00000e+00  3.47944e+00  1.97769e-04  3.59535e+02  3.60050e+02  4.14229e+00  4.17466e+00  1.07038e-01  8.57077e+01  1.76235e+02  4.32469e+05 -5.36046e+05  8.81592e+02  0.00000e+00 -1.02695e+05  5.54122e+04 -4.72830e+04  1.07041e-01  1.00000e+00 -8.56981e+01  0.00000e+00  1.55970e+00 
 6.52453e-03  4.66392e-03 -8.96437e-21  3.47944e+00  2.05768e-04  3.59573e+02  3.60050e+02  4.12065e+00  4.15404e+00  1.19492e-01  8.49257e+01  1.69384e+02  4.87848e+05 -5.78693e+05  8.43606e+02  0.00000e+00 -9.00018e+04  4.72718e+04 -4.27300e+04  1.19495e-01  1.00000e+00 -8.49155e+01  0.00000e+00  1.76116e+00 
 6.69707e-03  4.90238e-03  1.72236e-20  3.47944e+00  2.14551e-04  3.59611e+02  3.60050e+02  4.09639e+00  4.13089e+00  1.32725e-01  8.30265e+01  1.62450e+02  5.38478e+05 -6.19124e+05  8.05031e+02  0.00000e+00 -7.98415e+04  3.99029e+04 -3.99386e+04  1.32729e-01  1.00000e+00 -8.30157e+01  0.00000e+00  1.99293e+00 
 6.87356e-03  5.14086e-03  8.28595e-21  3.47944e+00  2.24127e-04  3.59648e+02  3.60050e+02  4.06926e+00  4.10493e+00  1.46517e-01  7.99944e+01  1.55510e+02  5.82948e+05 -6.55725e+05  7.66220e+02  0.00000e+00 -7.20109e+04  3.33386e+04 -3.86722e+04  1.46521e-01  1.00000e+00 -7.99832e+01  0.00000e+00  2.25912e+00 
 7.05370e-03  5.37934e-03 -1.59677e-20  3.47944e+00  2.34425e-04  3.59684e+02  3.60050e+02  4.03893e+00  4.07583e+00  1.60775e-01  7.59751e+01  1.48679e+02  6.20245e+05 -6.87975e+05  7.27811e+02  0.00000e+00 -6.70023e+04  2.75875e+04 -3.94148e+04  1.60781e-01  1.00000e+00 -7.59635e+01  0.00000e+00  2.56345e+00 
 7.23722e-03  5.61783e-03  0.00000e+00  3.47944e+00  2.45245e-04  3.59719e+02  3.60050e+02  4.00523e+00  4.04339e+00  1.75144e-01  7.10942e+01  1.42120e+02  6.50641e+05 -7.15125e+05  6.90554e+02  0.00000e+00 -6.37928e+04  2.26523e+04 -4.11405e+04  1.75144e-01  1.00000e+00 -7.10822e+01  0.00000e+00  2.91120e+00 
 7.42387e-03  5.85632e-03  0.00000e+00  3.47944e+00  2.56319e-04  3.59754e+02  3.60050e+02  3.96789e+00  4.00729e+00  1.89613e-01  6.56291e+01  1.35980e+02  6.74603e+05 -7.38372e+05  6.55224e+02  0.00000e+00 -6.31132e+04  1.84803e+04 -4.46329e+04  1.89616e-01  1.00000e+00 -6.56168e+01  0.00000e+00  3.30659e+00 
 7.61342e-03  6.09482e-03  0.00000e+00  3.47944e+00  2.67219e-04  3.59787e+02  3.60050e+02  3.92692e+00  3.96748e+00  2.03748e-01  5.97394e+01  1.30433e+02  6.94276e+05 -7.58260e+05  6.22540e+02  0.00000e+00 -6.33612e+04  1.50160e+04 -4.83453e+04  2.03751e-01  1.00000e+00 -5.97269e+01  0.00000e+00  3.75794e+00 
 7.80566e-03  6.33332e-03  0.00000e+00  3.47944e+00  2.77536e-04  3.59820e+02  3.60050e+02  3.88197e+00  3.92355e+00  2.17681e-01  5.36591e+01  1.25585e+02  7.11180e+05 -7.77369e+05  5.93116e+02  0.00000e+00 -6.55953e+04  1.21547e+04 -5.34406e+04  2.17686e-01  1.00000e+00 -5.36464e+01  0.00000e+00  4.27162e+00 
 8.00039e-03  6.57182e-03  0.00000e+00  3.47944e+00  2.86719e-04  3.59852e+02  3.60050e+02  3.83316e+00  3.87556e+00  2.30976e-01  4.74656e+01  1.21564e+02  7.28674e+05 -7.97302e+05  5.67313e+02  0.00000e+00 -6.80611e+04  9.80813e+03 -5.82530e+04  2.30980e-01  1.00000e+00 -4.74526e+01  0.00000e+00  4.86368e+00 
 8.19744e-03  6.81033e-03  1.31016e-20  3.47944e+00  2.94388e-04  3.59883e+02  3.60050e+02  3.77967e+00  3.82258e+00  2.43977e-01  4.12386e+01  1.18397e+02  7.48287e+05 -8.21385e+05  5.45267e+02  0.00000e+00 -7.25531e+04  7.85675e+03 -6.46963e+04  2.43984e-01  1.00000e+00 -4.12254e+01  0.00000e+00  5.54595e+00 
 8.39664e-03  7.04884e-03  0.00000e+00  3.47944e+00  3.00022e-04  3.59915e+02  3.60051e+02  3.72186e+00  3.76496e+00  2.56242e-01  3.49064e+01  1.16174e+02  7.74117e+05 -8.51834e+05  5.27028e+02  0.00000e+00 -7.71902e+04  6.21281e+03 -7.09774e+04  2.56246e-01  1.00000e+00 -3.48929e+01  0.00000e+00  6.35150e+00 
 8.59784e-03  7.28736e-03  0.00000e+00  3.47944e+00  3.03418e-04  3.59946e+02  3.60051e+02  3.65749e+00  3.70035e+00  2.68297e-01  2.83532e+01  1.14874e+02  8.07292e+05 -8.92453e+05  5.12414e+02  0.00000e+00 -8.46485e+04  4.76523e+03 -7.98833e+04  2.68305e-01  1.00000e+00 -2.83393e+01  0.00000e+00  7.30337e+00 
 8.80092e-03  7.52587e-03  0.00000e+00  3.47944e+00  3.04126e-04  3.59978e+02  3.60051e+02  3.58819e+00  3.63040e+00  2.79667e-01  2.13304e+01  1.14608e+02  8.53537e+05 -9.46884e+05  5.01356e+02  0.00000e+00 -9.28449e+04  3.43060e+03 -8.94143e+04  2.79672e-01  1.00000e+00 -2.13159e+01  0.00000e+00  8.47402e+00 
 9.00573e-03  7.76439e-03 -1.17014e-20  3.47944e+00  3.02121e-04  3.60011e+02  3.60051e+02  3.50787e+00  3.54896e+00  2.90999e-01  1.34490e+01  1.15369e+02  9.14457e+05 -1.02060e+06  4.93551e+02  0.00000e+00 -1.05651e+05  2.09163e+03 -1.03559e+05  2.91007e-01  1.00000e+00 -1.34338e+01  0.00000e+00  9.91370e+00 
 9.21216e-03  8.00291e-03  0.00000e+00  3.47944e+00  2.96936e-04  3.60046e+02  3.60052e+02  3.42259e+00  3.46209e+00  3.01801e-01  4.09287e+00  1.17384e+02  1.00086e+06 -1.12198e+06  4.89138e+02  0.00000e+00 -1.20632e+05  6.22725e+02 -1.20010e+05  3.01806e-01  1.00000e+00 -4.07674e+00  0.00000e+00  1.18046e+01 
 9.42012e-03  8.24144e-03  0.00000e+00  3.47944e+00  2.88675e-04  3.60085e+02  3.60052e+02  3.31565e+00  3.35317e+00  3.12777e-01 -1.75813e+01  1.20744e+02  1.11811e+06 -1.26220e+06  4.87487e+02  0.00000e+00 -1.43597e+05 -2.67057e+03 -1.46268e+05  3.12786e-01  1.00000e+00  1.76150e+01  0.00000e+00  1.42914e+01 
 9.62949e-03  8.47996e-03  0.00000e+00  3.47944e+00  2.76561e-04  3.60130e+02  3.60052e+02  3.20448e+00  3.23957e+00  3.23510e-01 -5.51820e+01  1.26034e+02  1.29459e+06 -1.46655e+06  4.89884e+02  0.00000e+00 -1.71477e+05 -8.44850e+03 -1.79925e+05  3.23515e-01  1.00000e+00  5.52182e+01  0.00000e+00  1.79512e+01 
 9.84019e-03  8.71849e-03  0.00000e+00  3.47944e+00  2.60467e-04  3.60189e+02  3.60053e+02  3.04630e+00  3.07885e+00  3.34537e-01 -1.15775e+02  1.33823e+02  1.55963e+06 -1.77340e+06  4.94448e+02  0.00000e+00 -2.13279e+05 -1.81946e+04 -2.31474e+05  3.34548e-01  1.00000e+00  1.15815e+02  0.00000e+00  2.34646e+01 
 1.00521e-02  8.95702e-03  0.00000e+00  3.47944e+00  2.39311e-04  3.60280e+02  3.60053e+02  2.87599e+00  2.90594e+00  3.45538e-01 -2.32501e+02  1.45654e+02  2.02476e+06 -2.27434e+06  5.03853e+02  0.00000e+00 -2.49071e+05 -3.84973e+04 -2.87568e+05  3.45546e-01  1.00000e+00  2.32545e+02  0.00000e+00  3.36963e+01 
 1.02653e-02  9.19555e-03  0.00000e+00  3.47944e+00  2.14166e-04  3.60457e+02  3.60054e+02  2.58463e+00  2.61046e+00  3.57938e-01 -5.14373e+02  1.62757e+02  2.89417e+06 -3.10494e+06  5.02683e+02  0.00000e+00 -2.10261e+05 -9.18616e+04 -3.02123e+05  3.57957e-01  1.00000e+00  5.14423e+02  0.00000e+00  5.60421e+01 
 1.04795e-02  9.43408e-03  0.00000e+00  3.47944e+00  1.89454e-04  3.60972e+02  3.60055e+02  2.14740e+00  2.16523e+00  3.71251e-01 -4.66767e+03  1.83990e+02  4.96546e+06 -4.09147e+06  4.90174e+02  1.06899e+06  1.94347e+06 -1.95890e+06 -1.54310e+04  3.71264e-01  1.00000e+00  4.66773e+03  3.17952e+03  1.42273e+02 
