# Code_Saturne plot output (1D profile)
#
# Iteration output: 3146
# Time output:      2.30007e+01
#
#COLUMN_TITLES: Distance | X | Y | Z | diameter_Field2 | temp_Field1 | temp_Field2 | Velocity_Field1[Z] | Velocity_Field2[Z] | vol_f_Field2 | mass_trans_Field1 | Xd_Field2 | BK | COAL | COMP | NUCL | W1 | MT | SMBR | ALPBB | CONDNUM | GAMA | GAMANUC | epsilon_Field1
 4.56474e-03  1.39645e-04  0.00000e+00  3.47944e+00  1.93267e-04  3.59984e+02  3.60056e+02  5.17884e+00  5.22130e+00  1.67648e-01  2.04721e+01  1.80267e+02  2.57867e+05 -7.22052e+05  1.32852e+03  0.00000e+00 -4.62856e+05  6.37774e+03 -4.56478e+05  1.67639e-01  1.00000e+00 -2.04581e+01  0.00000e+00  7.34198e-01 
 4.57812e-03  3.76525e-04  4.25872e-21  3.47944e+00  2.12189e-04  3.59984e+02  3.60056e+02  5.17781e+00  5.22536e+00  1.68834e-01  1.81044e+01  1.64192e+02  3.08050e+05 -6.20799e+05  1.21079e+03  0.00000e+00 -3.11538e+05  5.10102e+03 -3.06437e+05  1.68826e-01  1.00000e+00 -1.80918e+01  0.00000e+00  7.43921e-01 
 4.60371e-03  6.13858e-04  0.00000e+00  3.47944e+00  2.23579e-04  3.59986e+02  3.60056e+02  5.17593e+00  5.22645e+00  1.71074e-01  1.69126e+01  1.55827e+02  3.39056e+05 -5.78729e+05  1.14948e+03  0.00000e+00 -2.38524e+05  4.46317e+03 -2.34061e+05  1.71066e-01  1.00000e+00 -1.69006e+01  0.00000e+00  7.62785e-01 
 4.64138e-03  8.51483e-04  0.00000e+00  3.47944e+00  2.30112e-04  3.59988e+02  3.60056e+02  5.17326e+00  5.22532e+00  1.74279e-01  1.62787e+01  1.51403e+02  3.64290e+05 -5.66966e+05  1.11678e+03  0.00000e+00 -2.01559e+05  4.09708e+03 -1.97462e+05  1.74272e-01  1.00000e+00 -1.62669e+01  0.00000e+00  7.91217e-01 
 4.69084e-03  1.08931e-03  0.00000e+00  3.47944e+00  2.34044e-04  3.59990e+02  3.60056e+02  5.16967e+00  5.22245e+00  1.78519e-01  1.58894e+01  1.48860e+02  3.89895e+05 -5.71995e+05  1.09762e+03  0.00000e+00 -1.81003e+05  3.83842e+03 -1.77164e+05  1.78513e-01  1.00000e+00 -1.58776e+01  0.00000e+00  8.29728e-01 
 4.75174e-03  1.32727e-03  1.05001e-20  3.47944e+00  2.36578e-04  3.59993e+02  3.60056e+02  5.16507e+00  5.21810e+00  1.83746e-01  1.55933e+01  1.47265e+02  4.18358e+05 -5.87931e+05  1.08522e+03  0.00000e+00 -1.68487e+05  3.62040e+03 -1.64867e+05  1.83741e-01  1.00000e+00 -1.55812e+01  0.00000e+00  8.79171e-01 
 4.82366e-03  1.56534e-03  0.00000e+00  3.47944e+00  2.38397e-04  3.59997e+02  3.60056e+02  5.15937e+00  5.21238e+00  1.89959e-01  1.53089e+01  1.46141e+02  4.50713e+05 -6.11987e+05  1.07606e+03  0.00000e+00 -1.60198e+05  3.41175e+03 -1.56786e+05  1.89955e-01  1.00000e+00 -1.52966e+01  0.00000e+00  9.40558e-01 
 4.90611e-03  1.80349e-03  8.81027e-21  3.47944e+00  2.39900e-04  3.60001e+02  3.60056e+02  5.15246e+00  5.20526e+00  1.97104e-01  1.49830e+01  1.45226e+02  4.87373e+05 -6.42551e+05  1.06822e+03  0.00000e+00 -1.54110e+05  3.19775e+03 -1.50912e+05  1.97101e-01  1.00000e+00 -1.49702e+01  0.00000e+00  1.01515e+00 
 4.99859e-03  2.04170e-03  0.00000e+00  3.47944e+00  2.41333e-04  3.60006e+02  3.60056e+02  5.14419e+00  5.19670e+00  2.05131e-01  1.45792e+01  1.44364e+02  5.28338e+05 -6.78569e+05  1.06053e+03  0.00000e+00 -1.49170e+05  2.97188e+03 -1.46198e+05  2.05129e-01  1.00000e+00 -1.45660e+01  0.00000e+00  1.10440e+00 
 5.10055e-03  2.27996e-03  7.58893e-21  3.47944e+00  2.42855e-04  3.60011e+02  3.60056e+02  5.13440e+00  5.18658e+00  2.13959e-01  1.40710e+01  1.43459e+02  5.73337e+05 -7.19147e+05  1.05227e+03  0.00000e+00 -1.44758e+05  2.73251e+03 -1.42025e+05  2.13957e-01  1.00000e+00 -1.40573e+01  0.00000e+00  1.20992e+00 
 5.21143e-03  2.51826e-03  7.09702e-21  3.47944e+00  2.44574e-04  3.60016e+02  3.60056e+02  5.12293e+00  5.17474e+00  2.23494e-01  1.34410e+01  1.42450e+02  6.21842e+05 -7.63426e+05  1.04296e+03  0.00000e+00 -1.40541e+05  2.48102e+03 -1.38060e+05  2.23493e-01  1.00000e+00 -1.34267e+01  0.00000e+00  1.33350e+00 
 5.33068e-03  2.75659e-03  1.33300e-20  3.47944e+00  2.46560e-04  3.60021e+02  3.60056e+02  5.10958e+00  5.16102e+00  2.33624e-01  1.26800e+01  1.41303e+02  6.73138e+05 -8.10502e+05  1.03232e+03  0.00000e+00 -1.36332e+05  2.22080e+03 -1.34111e+05  2.33623e-01  1.00000e+00 -1.26652e+01  0.00000e+00  1.47703e+00 
 5.45775e-03  2.99495e-03  1.25651e-20  3.47944e+00  2.48851e-04  3.60027e+02  3.60056e+02  5.09416e+00  5.14524e+00  2.44229e-01  1.17879e+01  1.40002e+02  7.26351e+05 -8.59443e+05  1.02021e+03  0.00000e+00 -1.32072e+05  1.95644e+03 -1.30116e+05  2.44230e-01  1.00000e+00 -1.17725e+01  0.00000e+00  1.64244e+00 
 5.59212e-03  3.23333e-03  0.00000e+00  3.47944e+00  2.51460e-04  3.60032e+02  3.60056e+02  5.07650e+00  5.12724e+00  2.55168e-01  1.07721e+01  1.38550e+02  7.80558e+05 -9.09272e+05  1.00664e+03  0.00000e+00 -1.27707e+05  1.69316e+03 -1.26014e+05  2.55170e-01  1.00000e+00 -1.07562e+01  0.00000e+00  1.83173e+00 
 5.73326e-03  3.47172e-03  0.00000e+00  3.47944e+00  2.54365e-04  3.60038e+02  3.60056e+02  5.05644e+00  5.10685e+00  2.66207e-01  9.64612e+00  1.36968e+02  8.34962e+05 -9.58781e+05  9.91871e+02  0.00000e+00 -1.22827e+05  1.43638e+03 -1.21391e+05  2.66210e-01  1.00000e+00 -9.62977e+00  0.00000e+00  2.04685e+00 
 5.88069e-03  3.71014e-03 -5.35987e-21  3.47944e+00  2.57538e-04  3.60043e+02  3.60056e+02  5.03384e+00  5.08394e+00  2.77388e-01  8.43658e+00  1.35280e+02  8.88563e+05 -1.00777e+06  9.75866e+02  0.00000e+00 -1.18228e+05  1.19042e+03 -1.17037e+05  2.77391e-01  1.00000e+00 -8.41977e+00  0.00000e+00  2.28974e+00 
 6.03395e-03  3.94857e-03  5.10973e-21  3.47944e+00  2.60905e-04  3.60048e+02  3.60056e+02  5.00863e+00  5.05842e+00  2.88484e-01  7.16595e+00  1.33535e+02  9.40890e+05 -1.05539e+06  9.58858e+02  0.00000e+00 -1.13537e+05  9.59297e+02 -1.12578e+05  2.88489e-01  1.00000e+00 -7.14873e+00  0.00000e+00  2.56233e+00 
 6.19261e-03  4.18701e-03  0.00000e+00  3.47944e+00  2.64391e-04  3.60053e+02  3.60056e+02  4.98073e+00  5.03021e+00  2.99418e-01  5.86144e+00  1.31774e+02  9.91590e+05 -1.10142e+06  9.41557e+02  0.00000e+00 -1.08892e+05  7.45596e+02 -1.08147e+05  2.99423e-01  1.00000e+00 -5.84384e+00  0.00000e+00  2.86673e+00 
 6.35626e-03  4.42546e-03  0.00000e+00  3.47944e+00  2.67886e-04  3.60058e+02  3.60056e+02  4.95011e+00  4.99927e+00  3.10110e-01  4.54894e+00  1.30056e+02  1.04063e+06 -1.14600e+06  9.24169e+02  0.00000e+00 -1.04447e+05  5.50882e+02 -1.03896e+05  3.10115e-01  1.00000e+00 -4.53100e+00  0.00000e+00  3.20512e+00 
 6.52453e-03  4.66392e-03 -8.96437e-21  3.47944e+00  2.71268e-04  3.60062e+02  3.60056e+02  4.91678e+00  4.96559e+00  3.20467e-01  3.25178e+00  1.28434e+02  1.08842e+06 -1.18946e+06  9.07084e+02  0.00000e+00 -1.00130e+05  3.75685e+02 -9.97540e+04  3.20471e-01  1.00000e+00 -3.23350e+00  0.00000e+00  3.58038e+00 
 6.69707e-03  4.90238e-03  1.72236e-20  3.47944e+00  2.74417e-04  3.60066e+02  3.60057e+02  4.88071e+00  4.92912e+00  3.30485e-01  1.98985e+00  1.26961e+02  1.13549e+06 -1.23262e+06  8.90677e+02  0.00000e+00 -9.62324e+04  2.19542e+02 -9.60129e+04  3.30488e-01  1.00000e+00 -1.97126e+00  0.00000e+00  3.99566e+00 
 6.87356e-03  5.14086e-03  8.28595e-21  3.47944e+00  2.77194e-04  3.60070e+02  3.60057e+02  4.84186e+00  4.88981e+00  3.40088e-01  7.79057e-01  1.25690e+02  1.18294e+06 -1.27640e+06  8.75310e+02  0.00000e+00 -9.25902e+04  8.14443e+01 -9.25088e+04  3.40095e-01  1.00000e+00 -7.60157e-01  0.00000e+00  4.45566e+00 
 7.05370e-03  5.37934e-03 -1.59677e-20  3.47944e+00  2.79486e-04  3.60074e+02  3.60057e+02  4.80017e+00  4.84757e+00  3.49338e-01 -9.03624e-01  1.24659e+02  1.23167e+06 -1.32215e+06  8.61207e+02  0.00000e+00 -8.96183e+04 -9.73152e+01 -8.97156e+04  3.49345e-01  1.00000e+00  9.40703e-01  0.00000e+00  4.96547e+00 
 7.23722e-03  5.61783e-03  0.00000e+00  3.47944e+00  2.81158e-04  3.60077e+02  3.60057e+02  4.75554e+00  4.80228e+00  3.58168e-01 -3.30086e+00  1.23918e+02  1.28340e+06 -1.37128e+06  8.48642e+02  0.00000e+00 -8.70232e+04 -3.34849e+02 -8.73581e+04  3.58174e-01  1.00000e+00  3.33849e+00  0.00000e+00  5.53330e+00 
 7.42387e-03  5.85632e-03  0.00000e+00  3.47944e+00  2.82127e-04  3.60080e+02  3.60057e+02  4.70774e+00  4.75370e+00  3.66671e-01 -5.58477e+00  1.23493e+02  1.33926e+06 -1.42546e+06  8.37734e+02  0.00000e+00 -8.53621e+04 -5.49015e+02 -8.59112e+04  3.66676e-01  1.00000e+00  5.62300e+00  0.00000e+00  6.16730e+00 
 7.61342e-03  6.09482e-03  0.00000e+00  3.47944e+00  2.82264e-04  3.60082e+02  3.60057e+02  4.65663e+00  4.70167e+00  3.74772e-01 -7.79556e+00  1.23434e+02  1.40172e+06 -1.48672e+06  8.28679e+02  0.00000e+00 -8.41703e+04 -7.48043e+02 -8.49183e+04  3.74776e-01  1.00000e+00  7.83446e+00  0.00000e+00  6.88210e+00 
 7.80566e-03  6.33332e-03  0.00000e+00  3.47944e+00  2.81530e-04  3.60084e+02  3.60057e+02  4.60169e+00  4.64564e+00  3.82617e-01 -9.98873e+00  1.23756e+02  1.47200e+06 -1.55718e+06  8.21486e+02  0.00000e+00 -8.43542e+04 -9.40343e+02 -8.52946e+04  3.82621e-01  1.00000e+00  1.00284e+01  0.00000e+00  7.69052e+00 
 8.00039e-03  6.57182e-03  0.00000e+00  3.47944e+00  2.79786e-04  3.60087e+02  3.60058e+02  4.54288e+00  4.58559e+00  3.90095e-01 -1.22387e+01  1.24528e+02  1.55393e+06 -1.63991e+06  8.16357e+02  0.00000e+00 -8.51624e+04 -1.13637e+03 -8.62988e+04  3.90099e-01  1.00000e+00  1.22792e+01  0.00000e+00  8.61965e+00 
 8.19744e-03  6.81033e-03  1.31016e-20  3.47944e+00  2.77035e-04  3.60089e+02  3.60058e+02  4.47894e+00  4.52021e+00  3.97407e-01 -1.46493e+01  1.25765e+02  1.64906e+06 -1.73797e+06  8.13234e+02  0.00000e+00 -8.81011e+04 -1.34780e+03 -8.94489e+04  3.97411e-01  1.00000e+00  1.46909e+01  0.00000e+00  9.69020e+00 
 8.39664e-03  7.04884e-03  0.00000e+00  3.47944e+00  2.73101e-04  3.60091e+02  3.60058e+02  4.41058e+00  4.45024e+00  4.04402e-01 -1.73716e+01  1.27578e+02  1.76406e+06 -1.85691e+06  8.12450e+02  0.00000e+00 -9.20459e+04 -1.59265e+03 -9.36385e+04  4.04406e-01  1.00000e+00  1.74144e+01  0.00000e+00  1.09560e+01 
 8.59784e-03  7.28736e-03  0.00000e+00  3.47944e+00  2.68014e-04  3.60093e+02  3.60059e+02  4.33425e+00  4.37209e+00  4.11328e-01 -2.06361e+01  1.30001e+02  1.90160e+06 -2.00197e+06  8.13858e+02  0.00000e+00 -9.95658e+04 -1.89478e+03 -1.01461e+05  4.11334e-01  1.00000e+00  2.06801e+01  0.00000e+00  1.24535e+01 
 8.80092e-03  7.52587e-03  0.00000e+00  3.47944e+00  2.61505e-04  3.60096e+02  3.60059e+02  4.25360e+00  4.28942e+00  4.18019e-01 -2.48143e+01  1.33237e+02  2.07485e+06 -2.18484e+06  8.18235e+02  0.00000e+00 -1.09179e+05 -2.29710e+03 -1.11476e+05  4.18024e-01  1.00000e+00  2.48600e+01  0.00000e+00  1.43011e+01 
 9.00573e-03  7.76439e-03 -1.17014e-20  3.47944e+00  2.53611e-04  3.60100e+02  3.60059e+02  4.15838e+00  4.19194e+00  4.24737e-01 -3.05464e+01  1.37386e+02  2.29047e+06 -2.41679e+06  8.25126e+02  0.00000e+00 -1.25496e+05 -2.86883e+03 -1.28365e+05  4.24743e-01  1.00000e+00  3.05939e+01  0.00000e+00  1.65749e+01 
 9.21216e-03  8.00291e-03  0.00000e+00  3.47944e+00  2.43875e-04  3.60105e+02  3.60060e+02  4.06098e+00  4.09210e+00  4.31353e-01 -3.90051e+01  1.42871e+02  2.57892e+06 -2.72670e+06  8.36682e+02  0.00000e+00 -1.46945e+05 -3.75005e+03 -1.50695e+05  4.31359e-01  1.00000e+00  3.90549e+01  0.00000e+00  1.95752e+01 
 9.42012e-03  8.24144e-03  0.00000e+00  3.47944e+00  2.32293e-04  3.60112e+02  3.60060e+02  3.93352e+00  3.96195e+00  4.38120e-01 -5.25310e+01  1.49996e+02  2.96221e+06 -3.14659e+06  8.51202e+02  0.00000e+00 -1.83528e+05 -5.21900e+03 -1.88747e+05  4.38126e-01  1.00000e+00  5.25835e+01  0.00000e+00  2.35197e+01 
 9.62949e-03  8.47996e-03  0.00000e+00  3.47944e+00  2.18034e-04  3.60124e+02  3.60061e+02  3.80900e+00  3.83463e+00  4.45001e-01 -7.63685e+01  1.59807e+02  3.52972e+06 -3.76520e+06  8.75051e+02  0.00000e+00 -2.34601e+05 -7.95647e+03 -2.42558e+05  4.45005e-01  1.00000e+00  7.64244e+01  0.00000e+00  2.93567e+01 
 9.84019e-03  8.71849e-03  0.00000e+00  3.47944e+00  2.00927e-04  3.60145e+02  3.60061e+02  3.61936e+00  3.64200e+00  4.52101e-01 -1.23705e+02  1.73415e+02  4.38757e+06 -4.71327e+06  9.02503e+02  0.00000e+00 -3.24798e+05 -1.37628e+04 -3.38561e+05  4.52105e-01  1.00000e+00  1.23765e+02  0.00000e+00  3.81299e+01 
 1.00521e-02  8.95702e-03  0.00000e+00  3.47944e+00  1.79358e-04  3.60188e+02  3.60062e+02  3.43048e+00  3.45030e+00  4.59466e-01 -2.37018e+02  1.94272e+02  5.94259e+06 -6.39418e+06  9.50336e+02  0.00000e+00 -4.50640e+05 -2.90616e+04 -4.79702e+05  4.59469e-01  1.00000e+00  2.37084e+02  0.00000e+00  5.44814e+01 
 1.02653e-02  9.19555e-03  0.00000e+00  3.47944e+00  1.53485e-04  3.60297e+02  3.60063e+02  3.08247e+00  3.09869e+00  4.67623e-01 -5.91414e+02  2.27024e+02  9.08295e+06 -9.66369e+06  9.92195e+02  0.00000e+00 -5.79756e+05 -8.32503e+04 -6.63006e+05  4.67628e-01  1.00000e+00  5.91488e+02  0.00000e+00  8.99767e+01 
 1.04795e-02  9.43408e-03  0.00000e+00  3.47944e+00  1.25020e-04  3.60721e+02  3.60064e+02  2.59048e+00  2.59991e+00  4.77952e-01 -5.83696e+03  2.78719e+02  1.77351e+07 -1.65121e+07  1.05840e+03  1.05986e+06  2.28394e+06 -2.32711e+06 -4.31623e+04  4.77955e-01  1.00000e+00  5.83704e+03  3.44744e+03  2.26263e+02 
