# Code_Saturne plot output (1D profile)
#
# Iteration output: 4844
# Time output:      2.30008e+01
#
#COLUMN_TITLES: Distance | X | Y | Z | diameter_Field2 | temp_Field1 | temp_Field2 | Velocity_Field1[Z] | Velocity_Field2[Z] | vol_f_Field2 | mass_trans_Field1 | Xd_Field2 | BK | COAL | COMP | NUCL | W1 | MT | SMBR | ALPBB | CONDNUM | GAMA | GAMANUC | epsilon_Field1
 4.56474e-03  1.39645e-04  0.00000e+00  3.47944e+00  3.81270e-04  3.59922e+02  3.60059e+02  5.26075e+00  5.34866e+00  2.30832e-01  2.02586e+01  9.13686e+01  3.53522e+05 -6.07940e+05  7.13819e+02  0.00000e+00 -2.53705e+05  2.67024e+03 -2.51035e+05  2.30825e-01  1.00000e+00 -2.03423e+01  0.00000e+00  1.27161e+00 
 4.57812e-03  3.76525e-04  4.25872e-21  3.47944e+00  3.94257e-04  3.59922e+02  3.60059e+02  5.25937e+00  5.35067e+00  2.31817e-01  1.93953e+01  8.83587e+01  3.45409e+05 -5.75180e+05  6.90417e+02  0.00000e+00 -2.29081e+05  2.46174e+03 -2.26619e+05  2.31811e-01  1.00000e+00 -1.94758e+01  0.00000e+00  1.28534e+00 
 4.60371e-03  6.13858e-04  0.00000e+00  3.47944e+00  4.04894e-04  3.59923e+02  3.60059e+02  5.25652e+00  5.35032e+00  2.33343e-01  1.87244e+01  8.60375e+01  3.40988e+05 -5.53615e+05  6.72330e+02  0.00000e+00 -2.11955e+05  2.29906e+03 -2.09655e+05  2.33337e-01  1.00000e+00 -1.88026e+01  0.00000e+00  1.31204e+00 
 4.64138e-03  8.51483e-04  0.00000e+00  3.47944e+00  4.15282e-04  3.59925e+02  3.60059e+02  5.25244e+00  5.34784e+00  2.35538e-01  1.80488e+01  8.38853e+01  3.38317e+05 -5.36655e+05  6.55567e+02  0.00000e+00 -1.97682e+05  2.14064e+03 -1.95542e+05  2.35533e-01  1.00000e+00 -1.81251e+01  0.00000e+00  1.35211e+00 
 4.69084e-03  1.08931e-03  0.00000e+00  3.47944e+00  4.26600e-04  3.59927e+02  3.60059e+02  5.24701e+00  5.34326e+00  2.38383e-01  1.73226e+01  8.16598e+01  3.36203e+05 -5.20836e+05  6.38077e+02  0.00000e+00 -1.83995e+05  1.97625e+03 -1.82019e+05  2.38378e-01  1.00000e+00 -1.73970e+01  0.00000e+00  1.40579e+00 
 4.75174e-03  1.32727e-03  1.05001e-20  3.47944e+00  4.39289e-04  3.59930e+02  3.60059e+02  5.24018e+00  5.33663e+00  2.41859e-01  1.65357e+01  7.93010e+01  3.34039e+05 -5.04909e+05  6.19348e+02  0.00000e+00 -1.70251e+05  1.80580e+03 -1.68445e+05  2.41854e-01  1.00000e+00 -1.66081e+01  0.00000e+00  1.47359e+00 
 4.82366e-03  1.56534e-03  0.00000e+00  3.47944e+00  4.53477e-04  3.59934e+02  3.60059e+02  5.23187e+00  5.32807e+00  2.45965e-01  1.56934e+01  7.68199e+01  3.31475e+05 -4.88503e+05  5.99493e+02  0.00000e+00 -1.56428e+05  1.63265e+03 -1.54795e+05  2.45959e-01  1.00000e+00 -1.57638e+01  0.00000e+00  1.55625e+00 
 4.90611e-03  1.80349e-03  8.81027e-21  3.47944e+00  4.69059e-04  3.59938e+02  3.60059e+02  5.22199e+00  5.31759e+00  2.50636e-01  1.48098e+01  7.42679e+01  3.28417e+05 -4.71634e+05  5.78933e+02  0.00000e+00 -1.42638e+05  1.46198e+03 -1.41176e+05  2.50630e-01  1.00000e+00 -1.48782e+01  0.00000e+00  1.65474e+00 
 4.99859e-03  2.04170e-03  0.00000e+00  3.47944e+00  4.85786e-04  3.59942e+02  3.60059e+02  5.21048e+00  5.30523e+00  2.55840e-01  1.39052e+01  7.17107e+01  3.24899e+05 -4.54610e+05  5.58208e+02  0.00000e+00 -1.29153e+05  1.29865e+03 -1.27854e+05  2.55833e-01  1.00000e+00 -1.39716e+01  0.00000e+00  1.77016e+00 
 5.10055e-03  2.27996e-03  7.58893e-21  3.47944e+00  5.03246e-04  3.59947e+02  3.60059e+02  5.19721e+00  5.29095e+00  2.61512e-01  1.29995e+01  6.92228e+01  3.21139e+05 -4.37883e+05  5.37918e+02  0.00000e+00 -1.16206e+05  1.14675e+03 -1.15059e+05  2.61504e-01  1.00000e+00 -1.30641e+01  0.00000e+00  1.90382e+00 
 5.21143e-03  2.51826e-03  7.09702e-21  3.47944e+00  5.20919e-04  3.59953e+02  3.60059e+02  5.18210e+00  5.27474e+00  2.67613e-01  1.21110e+01  6.68743e+01  3.17431e+05 -4.22018e+05  5.18636e+02  0.00000e+00 -1.04068e+05  1.00883e+03 -1.03059e+05  2.67605e-01  1.00000e+00 -1.21740e+01  0.00000e+00  2.05699e+00 
 5.33068e-03  2.75659e-03  1.33300e-20  3.47944e+00  5.38179e-04  3.59959e+02  3.60059e+02  5.16506e+00  5.25653e+00  2.74035e-01  1.12519e+01  6.47297e+01  3.14195e+05 -4.07534e+05  5.00818e+02  0.00000e+00 -9.28389e+04  8.86190e+02 -9.19527e+04  2.74026e-01  1.00000e+00 -1.13136e+01  0.00000e+00  2.23120e+00 
 5.45775e-03  2.99495e-03  1.25651e-20  3.47944e+00  5.54408e-04  3.59966e+02  3.60059e+02  5.14602e+00  5.23627e+00  2.80800e-01  1.04318e+01  6.28350e+01  3.11771e+05 -3.95048e+05  4.84846e+02  0.00000e+00 -8.27920e+04  7.78595e+02 -8.20134e+04  2.80790e-01  1.00000e+00 -1.04925e+01  0.00000e+00  2.42795e+00 
 5.59212e-03  3.23333e-03  0.00000e+00  3.47944e+00  5.68996e-04  3.59973e+02  3.60059e+02  5.12489e+00  5.21390e+00  2.87777e-01  9.65002e+00  6.12241e+01  3.10577e+05 -3.84912e+05  4.70936e+02  0.00000e+00 -7.38641e+04  6.85047e+02 -7.31790e+04  2.87763e-01  1.00000e+00 -9.71005e+00  0.00000e+00  2.64920e+00 
 5.73326e-03  3.47172e-03  0.00000e+00  3.47944e+00  5.81480e-04  3.59980e+02  3.60059e+02  5.10162e+00  5.18938e+00  2.94960e-01  8.90292e+00  5.99098e+01  3.10831e+05 -3.77472e+05  4.59204e+02  0.00000e+00 -6.61819e+04  6.03686e+02 -6.55782e+04  2.94943e-01  1.00000e+00 -8.96274e+00  0.00000e+00  2.89614e+00 
 5.88069e-03  3.71014e-03 -5.35987e-21  3.47944e+00  5.91504e-04  3.59988e+02  3.60059e+02  5.07614e+00  5.16262e+00  3.02218e-01  8.17989e+00  5.88946e+01  3.12833e+05 -3.72856e+05  4.49565e+02  0.00000e+00 -5.95729e+04  5.32486e+02 -5.90404e+04  3.02202e-01  1.00000e+00 -8.23989e+00  0.00000e+00  3.17167e+00 
 6.03395e-03  3.94857e-03  5.10973e-21  3.47944e+00  5.98919e-04  3.59997e+02  3.60059e+02  5.04839e+00  5.13363e+00  3.09518e-01  7.46921e+00  5.81656e+01  3.16639e+05 -3.71129e+05  4.42031e+02  0.00000e+00 -5.40478e+04  4.69231e+02 -5.35786e+04  3.09507e-01  1.00000e+00 -7.52981e+00  0.00000e+00  3.47668e+00 
 6.19261e-03  4.18701e-03  0.00000e+00  3.47944e+00  6.03679e-04  3.60005e+02  3.60059e+02  5.01831e+00  5.10229e+00  3.16740e-01  6.75505e+00  5.77071e+01  3.22423e+05 -3.72241e+05  4.36351e+02  0.00000e+00 -4.93811e+04  4.11822e+02 -4.89692e+04  3.16734e-01  1.00000e+00 -6.81663e+00  0.00000e+00  3.81461e+00 
 6.35626e-03  4.42546e-03  0.00000e+00  3.47944e+00  6.05918e-04  3.60014e+02  3.60059e+02  4.98582e+00  5.06858e+00  3.23943e-01  6.02508e+00  5.74940e+01  3.30144e+05 -3.76207e+05  4.32401e+02  0.00000e+00 -4.56310e+04  3.58291e+02 -4.52727e+04  3.23941e-01  1.00000e+00 -6.08803e+00  0.00000e+00  4.18793e+00 
 6.52453e-03  4.66392e-03 -8.96437e-21  3.47944e+00  6.05781e-04  3.60023e+02  3.60059e+02  4.95087e+00  5.03241e+00  3.31062e-01  5.26291e+00  5.75073e+01  3.39909e+05 -3.82977e+05  4.29921e+02  0.00000e+00 -4.26386e+04  3.06863e+02 -4.23317e+04  3.31062e-01  1.00000e+00 -5.32757e+00  0.00000e+00  4.60096e+00 
 6.69707e-03  4.90238e-03  1.72236e-20  3.47944e+00  6.03507e-04  3.60032e+02  3.60059e+02  4.91332e+00  4.99367e+00  3.38110e-01  4.45463e+00  5.77241e+01  3.51698e+05 -3.92513e+05  4.28766e+02  0.00000e+00 -4.03861e+04  2.55959e+02 -4.01302e+04  3.38109e-01  1.00000e+00 -4.52138e+00  0.00000e+00  5.05713e+00 
 6.87356e-03  5.14086e-03  8.28595e-21  3.47944e+00  5.99260e-04  3.60042e+02  3.60060e+02  4.87310e+00  4.95227e+00  3.45008e-01  3.58472e+00  5.81334e+01  3.65713e+05 -4.04847e+05  4.28764e+02  0.00000e+00 -3.87051e+04  2.04151e+02 -3.85010e+04  3.45006e-01  1.00000e+00 -3.65389e+00  0.00000e+00  5.56300e+00 
 7.05370e-03  5.37934e-03 -1.59677e-20  3.47944e+00  5.93290e-04  3.60051e+02  3.60060e+02  4.83002e+00  4.90806e+00  3.51810e-01  2.63902e+00  5.87186e+01  3.81969e+05 -4.20063e+05  4.29787e+02  0.00000e+00 -3.76635e+04  1.50035e+02 -3.75135e+04  3.51807e-01  1.00000e+00 -2.71098e+00  0.00000e+00  6.12354e+00 
 7.23722e-03  5.61783e-03  0.00000e+00  3.47944e+00  5.85692e-04  3.60061e+02  3.60060e+02  4.78400e+00  4.86091e+00  3.58418e-01  1.60163e+00  5.94807e+01  4.00872e+05 -4.38364e+05  4.31733e+02  0.00000e+00 -3.70599e+04  9.22677e+01 -3.69676e+04  3.58415e-01  1.00000e+00 -1.67673e+00  0.00000e+00  6.74966e+00 
 7.42387e-03  5.85632e-03  0.00000e+00  3.47944e+00  5.76687e-04  3.60070e+02  3.60060e+02  4.73463e+00  4.81047e+00  3.64947e-01  4.55281e-01  6.04097e+01  4.22484e+05 -4.60036e+05  4.34533e+02  0.00000e+00 -3.71182e+04  2.93060e+01 -3.70889e+04  3.64943e-01  1.00000e+00 -5.33925e-01  0.00000e+00  7.44845e+00 
 7.61342e-03  6.09482e-03  0.00000e+00  3.47944e+00  5.66274e-04  3.60080e+02  3.60060e+02  4.68199e+00  4.75676e+00  3.71256e-01 -1.96498e+00  6.15209e+01  4.47556e+05 -4.85530e+05  4.38141e+02  0.00000e+00 -3.75356e+04 -9.77203e+01 -3.76333e+04  3.71251e-01  1.00000e+00  1.77842e+00  0.00000e+00  8.23884e+00 
 7.80566e-03  6.33332e-03  0.00000e+00  3.47944e+00  5.54658e-04  3.60090e+02  3.60061e+02  4.62514e+00  4.69889e+00  3.77523e-01 -5.24449e+00  6.28096e+01  4.76220e+05 -5.15395e+05  4.42521e+02  0.00000e+00 -3.87323e+04 -2.78493e+02 -3.90108e+04  3.77519e-01  1.00000e+00  5.04813e+00  0.00000e+00  9.13162e+00 
 8.00039e-03  6.57182e-03  0.00000e+00  3.47944e+00  5.41692e-04  3.60101e+02  3.60061e+02  4.56469e+00  4.63743e+00  3.83569e-01 -8.98851e+00  6.43133e+01  5.09835e+05 -5.50595e+05  4.47735e+02  0.00000e+00 -4.03118e+04 -4.88213e+02 -4.08001e+04  3.83566e-01  1.00000e+00  8.78116e+00  0.00000e+00  1.01608e+01 
 8.19744e-03  6.81033e-03  1.31016e-20  3.47944e+00  5.27541e-04  3.60111e+02  3.60061e+02  4.49826e+00  4.57004e+00  3.89600e-01 -1.33456e+01  6.60389e+01  5.48823e+05 -5.92227e+05  4.53728e+02  0.00000e+00 -4.29501e+04 -7.37749e+02 -4.36879e+04  3.89595e-01  1.00000e+00  1.31258e+01  0.00000e+00  1.13452e+01 
 8.39664e-03  7.04884e-03  0.00000e+00  3.47944e+00  5.11910e-04  3.60122e+02  3.60061e+02  4.42836e+00  4.49919e+00  3.95458e-01 -1.85278e+01  6.80559e+01  5.95568e+05 -6.42367e+05  4.60911e+02  0.00000e+00 -4.63389e+04 -1.04394e+03 -4.73828e+04  3.95451e-01  1.00000e+00  1.82939e+01  0.00000e+00  1.27470e+01 
 8.59784e-03  7.28736e-03  0.00000e+00  3.47944e+00  4.94936e-04  3.60135e+02  3.60062e+02  4.34845e+00  4.41835e+00  4.01376e-01 -2.48569e+01  7.03904e+01  6.51230e+05 -7.03228e+05  4.68705e+02  0.00000e+00 -5.15296e+04 -1.43094e+03 -5.29605e+04  4.01366e-01  1.00000e+00  2.46067e+01  0.00000e+00  1.44071e+01 
 8.80092e-03  7.52587e-03  0.00000e+00  3.47944e+00  4.76091e-04  3.60148e+02  3.60062e+02  4.26702e+00  4.33598e+00  4.07154e-01 -3.28497e+01  7.31772e+01  7.20840e+05 -7.79263e+05  4.78108e+02  0.00000e+00 -5.79450e+04 -1.94168e+03 -5.98867e+04  4.07144e-01  1.00000e+00  3.25804e+01  0.00000e+00  1.64654e+01 
 9.00573e-03  7.76439e-03 -1.17014e-20  3.47944e+00  4.55525e-04  3.60164e+02  3.60063e+02  4.16589e+00  4.23373e+00  4.13097e-01 -4.33188e+01  7.64816e+01  8.06884e+05 -8.75930e+05  4.88636e+02  0.00000e+00 -6.85578e+04 -2.64149e+03 -7.11993e+04  4.13087e-01  1.00000e+00  4.30268e+01  0.00000e+00  1.89866e+01 
 9.21216e-03  8.00291e-03  0.00000e+00  3.47944e+00  4.32223e-04  3.60183e+02  3.60063e+02  4.06953e+00  4.13561e+00  4.18965e-01 -5.77759e+01  8.06056e+01  9.22235e+05 -1.00469e+06  5.02465e+02  0.00000e+00 -8.19536e+04 -3.66542e+03 -8.56190e+04  4.18956e-01  1.00000e+00  5.74556e+01  0.00000e+00  2.23550e+01 
 9.42012e-03  8.24144e-03  0.00000e+00  3.47944e+00  4.06279e-04  3.60208e+02  3.60064e+02  3.93520e+00  3.99681e+00  4.25115e-01 -7.87287e+01  8.57536e+01  1.07653e+06 -1.18145e+06  5.17314e+02  0.00000e+00 -1.04396e+05 -5.24232e+03 -1.09638e+05  4.25104e-01  1.00000e+00  7.83738e+01  0.00000e+00  2.68236e+01 
 9.62949e-03  8.47996e-03  0.00000e+00  3.47944e+00  3.76172e-04  3.60241e+02  3.60064e+02  3.80931e+00  3.86388e+00  4.31415e-01 -1.11948e+02  9.26179e+01  1.30607e+06 -1.44138e+06  5.39695e+02  0.00000e+00 -1.34773e+05 -7.94085e+03 -1.42714e+05  4.31404e-01  1.00000e+00  1.11547e+02  0.00000e+00  3.35289e+01 
 9.84019e-03  8.71849e-03  0.00000e+00  3.47944e+00  3.42050e-04  3.60290e+02  3.60065e+02  3.60218e+00  3.65046e+00  4.37910e-01 -1.69799e+02  1.01859e+02  1.65044e+06 -1.84560e+06  5.62240e+02  0.00000e+00 -1.94596e+05 -1.30609e+04 -2.07657e+05  4.37900e-01  1.00000e+00  1.69334e+02  0.00000e+00  4.33936e+01 
 1.00521e-02  8.95702e-03  0.00000e+00  3.47944e+00  3.00188e-04  3.60374e+02  3.60065e+02  3.41368e+00  3.45560e+00  4.44659e-01 -2.90952e+02  1.16065e+02  2.28715e+06 -2.57515e+06  6.01787e+02  0.00000e+00 -2.87400e+05 -2.51347e+04 -3.12535e+05  4.44651e-01  1.00000e+00  2.90387e+02  0.00000e+00  6.20324e+01 
 1.02653e-02  9.19555e-03  0.00000e+00  3.47944e+00  2.50047e-04  3.60548e+02  3.60066e+02  3.03677e+00  3.07165e+00  4.52186e-01 -6.14109e+02  1.39341e+02  3.62882e+06 -4.07704e+06  6.38440e+02  0.00000e+00 -4.47589e+05 -6.26704e+04 -5.10260e+05  4.52172e-01  1.00000e+00  6.13375e+02  0.00000e+00  1.02887e+02 
 1.04795e-02  9.43408e-03  0.00000e+00  3.47944e+00  1.89697e-04  3.61078e+02  3.60068e+02  2.54228e+00  2.56374e+00  4.62640e-01 -5.53097e+03  1.83675e+02  7.76936e+06 -7.66594e+06  7.22587e+02  1.54030e+06  1.64445e+06 -1.65602e+06 -1.15740e+04  4.62628e-01  1.00000e+00  5.52990e+03  3.50688e+03  2.60746e+02 
