# Code_Saturne plot output (1D profile)
#
# Iteration output: 9081
# Time output:      2.30009e+01
#
#COLUMN_TITLES: Distance | X | Y | Z | diameter_Field2 | temp_Field1 | temp_Field2 | Velocity_Field1[Z] | Velocity_Field2[Z] | vol_f_Field2 | mass_trans_Field1 | Xd_Field2 | BK | COAL | COMP | NUCL | W1 | MT | SMBR | ALPBB | CONDNUM | GAMA | GAMANUC | epsilon_Field1
 4.56474e-03  1.39645e-04  0.00000e+00  3.47944e+00  5.23595e-04  3.60211e+02  3.60104e+02  7.71633e+00  7.80872e+00  6.07834e-01 -2.93594e+01  6.63876e+01  3.68866e+05 -4.23532e+05  1.30764e+03  0.00000e+00 -5.33578e+04 -1.21368e+03 -5.45714e+04  6.07836e-01  1.00000e+00  2.93281e+01  0.00000e+00  5.85599e+00 
 4.57812e-03  3.76525e-04  4.25872e-21  3.47944e+00  5.23567e-04  3.60211e+02  3.60104e+02  7.71499e+00  7.80773e+00  6.07955e-01 -2.93380e+01  6.63911e+01  3.69727e+05 -4.23592e+05  1.30761e+03  0.00000e+00 -5.25570e+04 -1.21262e+03 -5.37696e+04  6.07956e-01  1.00000e+00  2.93067e+01  0.00000e+00  5.89151e+00 
 4.60371e-03  6.13858e-04  0.00000e+00  3.47944e+00  5.22307e-04  3.60211e+02  3.60104e+02  7.71075e+00  7.80324e+00  6.08150e-01 -2.93639e+01  6.65512e+01  3.72674e+05 -4.26208e+05  1.31020e+03  0.00000e+00 -5.22229e+04 -1.21623e+03 -5.34391e+04  6.08151e-01  1.00000e+00  2.93325e+01  0.00000e+00  5.96104e+00 
 4.64138e-03  8.51483e-04  0.00000e+00  3.47944e+00  5.20089e-04  3.60211e+02  3.60103e+02  7.70460e+00  7.79655e+00  6.08448e-01 -2.94235e+01  6.68351e+01  3.77441e+05 -4.30878e+05  1.31491e+03  0.00000e+00 -5.21217e+04 -1.22329e+03 -5.33450e+04  6.08448e-01  1.00000e+00  2.93919e+01  0.00000e+00  6.06526e+00 
 4.69084e-03  1.08931e-03  0.00000e+00  3.47944e+00  5.17047e-04  3.60210e+02  3.60103e+02  7.69632e+00  7.78750e+00  6.08837e-01 -2.95097e+01  6.72282e+01  3.83962e+05 -4.37392e+05  1.32142e+03  0.00000e+00 -5.21079e+04 -1.23330e+03 -5.33412e+04  6.08836e-01  1.00000e+00  2.94778e+01  0.00000e+00  6.20544e+00 
 4.75174e-03  1.32727e-03  1.05001e-20  3.47944e+00  5.13279e-04  3.60210e+02  3.60103e+02  7.68598e+00  7.77621e+00  6.09323e-01 -2.96166e+01  6.77218e+01  3.92200e+05 -4.45648e+05  1.32958e+03  0.00000e+00 -5.21191e+04 -1.24585e+03 -5.33649e+04  6.09321e-01  1.00000e+00  2.95843e+01  0.00000e+00  6.38292e+00 
 4.82366e-03  1.56534e-03  0.00000e+00  3.47944e+00  5.08833e-04  3.60209e+02  3.60103e+02  7.67355e+00  7.76264e+00  6.09903e-01 -2.97417e+01  6.83136e+01  4.02193e+05 -4.55662e+05  1.33931e+03  0.00000e+00 -5.21305e+04 -1.26084e+03 -5.33913e+04  6.09899e-01  1.00000e+00  2.97089e+01  0.00000e+00  6.59952e+00 
 4.90611e-03  1.80349e-03  8.81027e-21  3.47944e+00  5.03751e-04  3.60208e+02  3.60103e+02  7.65903e+00  7.74682e+00  6.10580e-01 -2.98832e+01  6.90028e+01  4.13997e+05 -4.67487e+05  1.35061e+03  0.00000e+00 -5.21395e+04 -1.27819e+03 -5.34177e+04  6.10575e-01  1.00000e+00  2.98499e+01  0.00000e+00  6.85744e+00 
 4.99859e-03  2.04170e-03  0.00000e+00  3.47944e+00  4.98068e-04  3.60207e+02  3.60103e+02  7.64237e+00  7.72871e+00  6.11354e-01 -3.00399e+01  6.97902e+01  4.27689e+05 -4.81213e+05  1.36345e+03  0.00000e+00 -5.21601e+04 -1.29789e+03 -5.34580e+04  6.11349e-01  1.00000e+00  3.00060e+01  0.00000e+00  7.15913e+00 
 5.10055e-03  2.27996e-03  7.58893e-21  3.47944e+00  4.91820e-04  3.60206e+02  3.60104e+02  7.62350e+00  7.70825e+00  6.12239e-01 -3.02103e+01  7.06768e+01  4.43359e+05 -4.96957e+05  1.37780e+03  0.00000e+00 -5.22204e+04 -1.31991e+03 -5.35403e+04  6.12233e-01  1.00000e+00  3.01757e+01  0.00000e+00  7.50780e+00 
 5.21143e-03  2.51826e-03  7.09702e-21  3.47944e+00  4.85045e-04  3.60205e+02  3.60104e+02  7.60239e+00  7.68542e+00  6.13227e-01 -3.03931e+01  7.16643e+01  4.61120e+05 -5.14843e+05  1.39368e+03  0.00000e+00 -5.23294e+04 -1.34425e+03 -5.36736e+04  6.13220e-01  1.00000e+00  3.03577e+01  0.00000e+00  7.90676e+00 
 5.33068e-03  2.75659e-03  1.33300e-20  3.47944e+00  4.77781e-04  3.60204e+02  3.60104e+02  7.57896e+00  7.66014e+00  6.14321e-01 -3.05861e+01  7.27539e+01  4.81105e+05 -5.35019e+05  1.41097e+03  0.00000e+00 -5.25030e+04 -1.37089e+03 -5.38739e+04  6.14314e-01  1.00000e+00  3.05498e+01  0.00000e+00  8.36044e+00 
 5.45775e-03  2.99495e-03  1.25651e-20  3.47944e+00  4.70075e-04  3.60202e+02  3.60104e+02  7.55308e+00  7.63230e+00  6.15502e-01 -3.07872e+01  7.39468e+01  5.03447e+05 -5.57626e+05  1.42974e+03  0.00000e+00 -5.27495e+04 -1.39980e+03 -5.41493e+04  6.15494e-01  1.00000e+00  3.07499e+01  0.00000e+00  8.87213e+00 
 5.59212e-03  3.23333e-03  0.00000e+00  3.47944e+00  4.61972e-04  3.60201e+02  3.60104e+02  7.52472e+00  7.60188e+00  6.16780e-01 -3.09931e+01  7.52441e+01  5.28325e+05 -5.82840e+05  1.44979e+03  0.00000e+00 -5.30654e+04 -1.43088e+03 -5.44962e+04  6.16772e-01  1.00000e+00  3.09548e+01  0.00000e+00  9.44867e+00 
 5.73326e-03  3.47172e-03  0.00000e+00  3.47944e+00  4.53520e-04  3.60200e+02  3.60104e+02  7.49370e+00  7.56871e+00  6.18116e-01 -3.12026e+01  7.66468e+01  5.55918e+05 -6.10820e+05  1.47125e+03  0.00000e+00 -5.34310e+04 -1.46419e+03 -5.48952e+04  6.18110e-01  1.00000e+00  3.11631e+01  0.00000e+00  1.00939e+01 
 5.88069e-03  3.71014e-03 -5.35987e-21  3.47944e+00  4.44768e-04  3.60198e+02  3.60104e+02  7.45996e+00  7.53274e+00  6.19555e-01 -3.14109e+01  7.81554e+01  5.86379e+05 -6.41797e+05  1.49397e+03  0.00000e+00 -5.39241e+04 -1.49944e+03 -5.54235e+04  6.19551e-01  1.00000e+00  3.13702e+01  0.00000e+00  1.08157e+01 
 6.03395e-03  3.94857e-03  5.10973e-21  3.47944e+00  4.35758e-04  3.60197e+02  3.60105e+02  7.42329e+00  7.49376e+00  6.21052e-01 -3.16184e+01  7.97717e+01  6.19969e+05 -6.75975e+05  1.51801e+03  0.00000e+00 -5.44881e+04 -1.53679e+03 -5.60249e+04  6.21051e-01  1.00000e+00  3.15763e+01  0.00000e+00  1.16203e+01 
 6.19261e-03  4.18701e-03  0.00000e+00  3.47944e+00  4.26536e-04  3.60195e+02  3.60105e+02  7.38362e+00  7.45174e+00  6.22669e-01 -3.18195e+01  8.14969e+01  6.56878e+05 -7.13650e+05  1.54319e+03  0.00000e+00 -5.52292e+04 -1.57585e+03 -5.68050e+04  6.22670e-01  1.00000e+00  3.17759e+01  0.00000e+00  1.25188e+01 
 6.35626e-03  4.42546e-03  0.00000e+00  3.47944e+00  4.17131e-04  3.60193e+02  3.60105e+02  7.34068e+00  7.40640e+00  6.24340e-01 -3.20166e+01  8.33347e+01  6.97455e+05 -7.55101e+05  1.56960e+03  0.00000e+00 -5.60762e+04 -1.61697e+03 -5.76931e+04  6.24341e-01  1.00000e+00  3.19715e+01  0.00000e+00  1.35180e+01 
 6.52453e-03  4.66392e-03 -8.96437e-21  3.47944e+00  4.07581e-04  3.60191e+02  3.60105e+02  7.29447e+00  7.35775e+00  6.26130e-01 -3.22036e+01  8.52880e+01  7.41972e+05 -8.00727e+05  1.59717e+03  0.00000e+00 -5.71581e+04 -1.65970e+03 -5.88178e+04  6.26131e-01  1.00000e+00  3.21568e+01  0.00000e+00  1.46328e+01 
 6.69707e-03  4.90238e-03  1.72236e-20  3.47944e+00  3.97895e-04  3.60190e+02  3.60106e+02  7.24454e+00  7.30536e+00  6.27949e-01 -3.23877e+01  8.73648e+01  7.90957e+05 -8.50940e+05  1.62597e+03  0.00000e+00 -5.83568e+04 -1.70480e+03 -6.00616e+04  6.27951e-01  1.00000e+00  3.23390e+01  0.00000e+00  1.58731e+01 
 6.87356e-03  5.14086e-03  8.28595e-21  3.47944e+00  3.88098e-04  3.60188e+02  3.60106e+02  7.19109e+00  7.24941e+00  6.29894e-01 -3.25629e+01  8.95708e+01  8.44810e+05 -9.06325e+05  1.65594e+03  0.00000e+00 -5.98599e+04 -1.75180e+03 -6.16117e+04  6.29895e-01  1.00000e+00  3.25122e+01  0.00000e+00  1.72616e+01 
 7.05370e-03  5.37934e-03 -1.59677e-20  3.47944e+00  3.78181e-04  3.60186e+02  3.60106e+02  7.13323e+00  7.18904e+00  6.31850e-01 -3.27441e+01  9.19205e+01  9.04314e+05 -9.67550e+05  1.68713e+03  0.00000e+00 -6.15489e+04 -1.80207e+03 -6.33509e+04  6.31850e-01  1.00000e+00  3.26914e+01  0.00000e+00  1.88111e+01 
 7.23722e-03  5.61783e-03  0.00000e+00  3.47944e+00  3.68154e-04  3.60184e+02  3.60107e+02  7.07163e+00  7.12492e+00  6.33949e-01 -3.29270e+01  9.44248e+01  9.70125e+05 -1.03550e+06  1.71960e+03  0.00000e+00 -6.36588e+04 -1.85524e+03 -6.55140e+04  6.33947e-01  1.00000e+00  3.28719e+01  0.00000e+00  2.05585e+01 
 7.42387e-03  5.85632e-03  0.00000e+00  3.47944e+00  3.57985e-04  3.60183e+02  3.60107e+02  7.00446e+00  7.05521e+00  6.36039e-01 -3.31410e+01  9.71082e+01  1.04347e+06 -1.11130e+06  1.75340e+03  0.00000e+00 -6.60752e+04 -1.91394e+03 -6.79891e+04  6.36034e-01  1.00000e+00  3.30835e+01  0.00000e+00  2.25217e+01 
 7.61342e-03  6.09482e-03  0.00000e+00  3.47944e+00  3.47667e-04  3.60181e+02  3.60108e+02  6.93371e+00  6.98191e+00  6.38275e-01 -3.33845e+01  9.99909e+01  1.12554e+06 -1.19635e+06  1.78906e+03  0.00000e+00 -6.90224e+04 -1.97817e+03 -7.10006e+04  6.38268e-01  1.00000e+00  3.33245e+01  0.00000e+00  2.47611e+01 
 7.80566e-03  6.33332e-03  0.00000e+00  3.47944e+00  3.37150e-04  3.60179e+02  3.60108e+02  6.85491e+00  6.90052e+00  6.40503e-01 -3.37174e+01  1.03111e+02  1.21817e+06 -1.29259e+06  1.82584e+03  0.00000e+00 -7.26017e+04 -2.05296e+03 -7.46546e+04  6.40495e-01  1.00000e+00  3.36546e+01  0.00000e+00  2.73051e+01 
 8.00039e-03  6.57182e-03  0.00000e+00  3.47944e+00  3.26399e-04  3.60178e+02  3.60109e+02  6.77413e+00  6.81717e+00  6.42859e-01 -3.41437e+01  1.06509e+02  1.32370e+06 -1.40249e+06  1.86607e+03  0.00000e+00 -7.69235e+04 -2.13940e+03 -7.90629e+04  6.42852e-01  1.00000e+00  3.40777e+01  0.00000e+00  3.02539e+01 
 8.19744e-03  6.81033e-03  1.31016e-20  3.47944e+00  3.15346e-04  3.60176e+02  3.60110e+02  6.67933e+00  6.71969e+00  6.45173e-01 -3.47988e+01  1.10243e+02  1.44522e+06 -1.52945e+06  1.90653e+03  0.00000e+00 -8.23230e+04 -2.24868e+03 -8.45716e+04  6.45168e-01  1.00000e+00  3.47295e+01  0.00000e+00  3.36583e+01 
 8.39664e-03  7.04884e-03  0.00000e+00  3.47944e+00  3.03905e-04  3.60175e+02  3.60110e+02  6.58802e+00  6.62580e+00  6.47770e-01 -3.56954e+01  1.14395e+02  1.58750e+06 -1.67847e+06  1.95215e+03  0.00000e+00 -8.90210e+04 -2.38376e+03 -9.14047e+04  6.47767e-01  1.00000e+00  3.56223e+01  0.00000e+00  3.77415e+01 
 8.59784e-03  7.28736e-03  0.00000e+00  3.47944e+00  2.92011e-04  3.60174e+02  3.60111e+02  6.46925e+00  6.50422e+00  6.50197e-01 -3.71878e+01  1.19057e+02  1.75581e+06 -1.85569e+06  1.99700e+03  0.00000e+00 -9.78803e+04 -2.57490e+03 -1.00455e+05  6.50197e-01  1.00000e+00  3.71106e+01  0.00000e+00  4.25331e+01 
 8.80092e-03  7.52587e-03  0.00000e+00  3.47944e+00  2.79441e-04  3.60174e+02  3.60112e+02  6.36745e+00  6.39979e+00  6.53039e-01 -3.93546e+01  1.24414e+02  1.96163e+06 -2.07268e+06  2.05461e+03  0.00000e+00 -1.08993e+05 -2.83514e+03 -1.11828e+05  6.53041e-01  1.00000e+00  3.92726e+01  0.00000e+00  4.85631e+01 
 9.00573e-03  7.76439e-03 -1.17014e-20  3.47944e+00  2.66191e-04  3.60174e+02  3.60113e+02  6.21010e+00  6.23939e+00  6.55684e-01 -4.31831e+01  1.30609e+02  2.21450e+06 -2.34217e+06  2.10623e+03  0.00000e+00 -1.25558e+05 -3.25286e+03 -1.28811e+05  6.55689e-01  1.00000e+00  4.30956e+01  0.00000e+00  5.58724e+01 
 9.21216e-03  8.00291e-03  0.00000e+00  3.47944e+00  2.51732e-04  3.60175e+02  3.60113e+02  6.09733e+00  6.12399e+00  6.58955e-01 -4.92613e+01  1.38113e+02  2.54611e+06 -2.69501e+06  2.18559e+03  0.00000e+00 -1.46708e+05 -3.90491e+03 -1.50613e+05  6.58959e-01  1.00000e+00  4.91672e+01  0.00000e+00  6.57912e+01 
 9.42012e-03  8.24144e-03  0.00000e+00  3.47944e+00  2.36191e-04  3.60179e+02  3.60115e+02  5.87215e+00  5.89500e+00  6.61952e-01 -6.09128e+01  1.47204e+02  2.97876e+06 -3.16527e+06  2.25248e+03  0.00000e+00 -1.84259e+05 -5.12423e+03 -1.89383e+05  6.61961e-01  1.00000e+00  6.08110e+01  0.00000e+00  7.84187e+01 
 9.62949e-03  8.47996e-03  0.00000e+00  3.47944e+00  2.18468e-04  3.60186e+02  3.60116e+02  5.73728e+00  5.75756e+00  6.65904e-01 -8.27299e+01  1.59149e+02  3.60991e+06 -3.85309e+06  2.37523e+03  0.00000e+00 -2.40796e+05 -7.48199e+03 -2.48278e+05  6.65911e-01  1.00000e+00  8.26182e+01  0.00000e+00  9.74773e+01 
 9.84019e-03  8.71849e-03  0.00000e+00  3.47944e+00  1.98596e-04  3.60201e+02  3.60117e+02  5.40350e+00  5.41965e+00  6.69661e-01 -1.32349e+02  1.75079e+02  4.55499e+06 -4.90482e+06  2.46786e+03  0.00000e+00 -3.47361e+05 -1.30987e+04 -3.60459e+05  6.69672e-01  1.00000e+00  1.32224e+02  0.00000e+00  1.25449e+02 
 1.00521e-02  8.95702e-03  0.00000e+00  3.47944e+00  1.74448e-04  3.60238e+02  3.60118e+02  5.19395e+00  5.20849e+00  6.75011e-01 -2.63683e+02  1.99319e+02  6.26551e+06 -6.80012e+06  2.67932e+03  0.00000e+00 -5.31934e+05 -2.94875e+04 -5.61421e+05  6.75019e-01  1.00000e+00  2.63540e+02  0.00000e+00  1.78462e+02 
 1.02653e-02  9.19555e-03  0.00000e+00  3.47944e+00  1.44883e-04  3.60347e+02  3.60121e+02  4.63036e+00  4.64156e+00  6.79145e-01 -7.57135e+02  2.40002e+02  9.99111e+06 -1.08031e+07  2.85625e+03  0.00000e+00 -8.09090e+05 -1.01367e+05 -9.10456e+05  6.79146e-01  1.00000e+00  7.56963e+02  0.00000e+00  2.95153e+02 
 1.04795e-02  9.43408e-03  0.00000e+00  3.47944e+00  1.09743e-04  3.60861e+02  3.60123e+02  3.97876e+00  3.98557e+00  6.89581e-01 -8.36475e+03  3.16863e+02  2.11979e+07 -2.07571e+07  3.31384e+03  2.21684e+06  2.66096e+06 -2.76538e+06 -1.04423e+05  6.89598e-01  1.00000e+00  8.36453e+03  4.27333e+03  7.47955e+02 
