# Code_Saturne plot output (1D profile)
#
# Iteration output: 5262
# Time output:      2.30030e+01
#
#COLUMN_TITLES: Distance | X | Y | Z | diameter_Field2 | temp_Field1 | temp_Field2 | Velocity_Field1[Z] | Velocity_Field2[Z] | vol_f_Field2 | mass_trans_Field1 | Xd_Field2 | BK | COAL | COMP | NUCL | W1 | MT | SMBR | ALPBB | CONDNUM | GAMA | GAMANUC | epsilon_Field1
 4.56474e-03  1.39645e-04  0.00000e+00  3.47944e+00  8.02954e-04  3.60221e+02  3.60084e+02  6.80087e+00  6.95658e+00  5.29372e-01 -2.44679e+01  4.33296e+01  2.49503e+05 -2.68108e+05  6.41419e+02  0.00000e+00 -1.79638e+04 -1.30387e+03 -1.92676e+04  5.29370e-01  1.00000e+00  2.44739e+01  0.00000e+00  5.12255e+00 
 4.57812e-03  3.76525e-04  4.25872e-21  3.47944e+00  8.02037e-04  3.60220e+02  3.60084e+02  6.79978e+00  6.95597e+00  5.29484e-01 -2.45017e+01  4.33791e+01  2.50393e+05 -2.68737e+05  6.42120e+02  0.00000e+00 -1.77015e+04 -1.30689e+03 -1.90084e+04  5.29482e-01  1.00000e+00  2.45076e+01  0.00000e+00  5.14987e+00 
 4.60371e-03  6.13858e-04  0.00000e+00  3.47944e+00  7.99689e-04  3.60220e+02  3.60084e+02  6.79608e+00  6.95194e+00  5.29697e-01 -2.45571e+01  4.35065e+01  2.52400e+05 -2.70593e+05  6.43718e+02  0.00000e+00 -1.75488e+04 -1.31316e+03 -1.88619e+04  5.29695e-01  1.00000e+00  2.45631e+01  0.00000e+00  5.20271e+00 
 4.64138e-03  8.51483e-04  0.00000e+00  3.47944e+00  7.96094e-04  3.60220e+02  3.60084e+02  6.79077e+00  6.94593e+00  5.30028e-01 -2.46387e+01  4.37029e+01  2.55447e+05 -2.73525e+05  6.46185e+02  0.00000e+00 -1.74323e+04 -1.32265e+03 -1.87549e+04  5.30026e-01  1.00000e+00  2.46448e+01  0.00000e+00  5.28139e+00 
 4.69084e-03  1.08931e-03  0.00000e+00  3.47944e+00  7.91258e-04  3.60219e+02  3.60084e+02  6.78360e+00  6.93775e+00  5.30466e-01 -2.47491e+01  4.39701e+01  2.59578e+05 -2.77578e+05  6.49524e+02  0.00000e+00 -1.73501e+04 -1.33559e+03 -1.86857e+04  5.30463e-01  1.00000e+00  2.47551e+01  0.00000e+00  5.38686e+00 
 4.75174e-03  1.32727e-03  1.05001e-20  3.47944e+00  7.85237e-04  3.60218e+02  3.60084e+02  6.77464e+00  6.92748e+00  5.31024e-01 -2.48879e+01  4.43072e+01  2.64805e+05 -2.82778e+05  6.53723e+02  0.00000e+00 -1.73194e+04 -1.35196e+03 -1.86713e+04  5.31022e-01  1.00000e+00  2.48940e+01  0.00000e+00  5.51985e+00 
 4.82366e-03  1.56534e-03  0.00000e+00  3.47944e+00  7.78064e-04  3.60218e+02  3.60084e+02  6.76384e+00  6.91507e+00  5.31700e-01 -2.50554e+01  4.47157e+01  2.71176e+05 -2.89192e+05  6.58789e+02  0.00000e+00 -1.73571e+04 -1.37187e+03 -1.87290e+04  5.31697e-01  1.00000e+00  2.50617e+01  0.00000e+00  5.68152e+00 
 4.90611e-03  1.80349e-03  8.81027e-21  3.47944e+00  7.69800e-04  3.60217e+02  3.60084e+02  6.75118e+00  6.90049e+00  5.32498e-01 -2.52512e+01  4.51958e+01  2.78730e+05 -2.96877e+05  6.64710e+02  0.00000e+00 -1.74824e+04 -1.39534e+03 -1.88777e+04  5.32496e-01  1.00000e+00  2.52575e+01  0.00000e+00  5.87320e+00 
 4.99859e-03  2.04170e-03  0.00000e+00  3.47944e+00  7.60519e-04  3.60216e+02  3.60084e+02  6.73661e+00  6.88369e+00  5.33420e-01 -2.54741e+01  4.57474e+01  2.87514e+05 -3.05891e+05  6.71468e+02  0.00000e+00 -1.77056e+04 -1.42238e+03 -1.91280e+04  5.33418e-01  1.00000e+00  2.54806e+01  0.00000e+00  6.09651e+00 
 5.10055e-03  2.27996e-03  7.58893e-21  3.47944e+00  7.50312e-04  3.60214e+02  3.60084e+02  6.72005e+00  6.86460e+00  5.34469e-01 -2.57232e+01  4.63698e+01  2.97577e+05 -3.16291e+05  6.79030e+02  0.00000e+00 -1.80346e+04 -1.45297e+03 -1.94875e+04  5.34466e-01  1.00000e+00  2.57298e+01  0.00000e+00  6.35343e+00 
 5.21143e-03  2.51826e-03  7.09702e-21  3.47944e+00  7.39272e-04  3.60213e+02  3.60084e+02  6.70148e+00  6.84319e+00  5.35645e-01 -2.59975e+01  4.70623e+01  3.08975e+05 -3.28136e+05  6.87369e+02  0.00000e+00 -1.84736e+04 -1.48713e+03 -1.99607e+04  5.35642e-01  1.00000e+00  2.60041e+01  0.00000e+00  6.64619e+00 
 5.33068e-03  2.75659e-03  1.33300e-20  3.47944e+00  7.27491e-04  3.60212e+02  3.60085e+02  6.68079e+00  6.81939e+00  5.36928e-01 -2.62959e+01  4.78246e+01  3.21792e+05 -3.41488e+05  6.96451e+02  0.00000e+00 -1.89990e+04 -1.52491e+03 -2.05239e+04  5.36925e-01  1.00000e+00  2.63027e+01  0.00000e+00  6.97760e+00 
 5.45775e-03  2.99495e-03  1.25651e-20  3.47944e+00  7.15073e-04  3.60210e+02  3.60085e+02  6.65789e+00  6.79312e+00  5.38305e-01 -2.66173e+01  4.86553e+01  3.36105e+05 -3.56398e+05  7.06230e+02  0.00000e+00 -1.95869e+04 -1.56635e+03 -2.11532e+04  5.38302e-01  1.00000e+00  2.66242e+01  0.00000e+00  7.35064e+00 
 5.59212e-03  3.23333e-03  0.00000e+00  3.47944e+00  7.02103e-04  3.60209e+02  3.60085e+02  6.63267e+00  6.76428e+00  5.39770e-01 -2.69616e+01  4.95542e+01  3.52014e+05 -3.72951e+05  7.16701e+02  0.00000e+00 -2.02207e+04 -1.61155e+03 -2.18322e+04  5.39767e-01  1.00000e+00  2.69688e+01  0.00000e+00  7.76901e+00 
 5.73326e-03  3.47172e-03  0.00000e+00  3.47944e+00  6.88672e-04  3.60207e+02  3.60085e+02  6.60500e+00  6.73284e+00  5.41313e-01 -2.73340e+01  5.05208e+01  3.69613e+05 -3.91236e+05  7.27814e+02  0.00000e+00 -2.08957e+04 -1.66093e+03 -2.25566e+04  5.41310e-01  1.00000e+00  2.73413e+01  0.00000e+00  8.23621e+00 
 5.88069e-03  3.71014e-03 -5.35987e-21  3.47944e+00  6.74838e-04  3.60205e+02  3.60085e+02  6.57481e+00  6.69872e+00  5.42937e-01 -2.77334e+01  5.15567e+01  3.89049e+05 -4.11392e+05  7.39513e+02  0.00000e+00 -2.16035e+04 -1.71461e+03 -2.33181e+04  5.42934e-01  1.00000e+00  2.77409e+01  0.00000e+00  8.75768e+00 
 6.03395e-03  3.94857e-03  5.10973e-21  3.47944e+00  6.60665e-04  3.60204e+02  3.60085e+02  6.54196e+00  6.66185e+00  5.44633e-01 -2.81625e+01  5.26629e+01  4.10466e+05 -4.33561e+05  7.51769e+02  0.00000e+00 -2.23429e+04 -1.77297e+03 -2.41158e+04  5.44630e-01  1.00000e+00  2.81702e+01  0.00000e+00  9.33840e+00 
 6.19261e-03  4.18701e-03  0.00000e+00  3.47944e+00  6.46179e-04  3.60202e+02  3.60086e+02  6.50642e+00  6.62221e+00  5.46387e-01 -2.86255e+01  5.38438e+01  4.34107e+05 -4.57953e+05  7.64620e+02  0.00000e+00 -2.30818e+04 -1.83662e+03 -2.49184e+04  5.46384e-01  1.00000e+00  2.86335e+01  0.00000e+00  9.98617e+00 
 6.35626e-03  4.42546e-03  0.00000e+00  3.47944e+00  6.31424e-04  3.60200e+02  3.60086e+02  6.46793e+00  6.57956e+00  5.48189e-01 -2.91274e+01  5.51022e+01  4.60175e+05 -4.84801e+05  7.78045e+02  0.00000e+00 -2.38482e+04 -1.90622e+03 -2.57544e+04  5.48186e-01  1.00000e+00  2.91357e+01  0.00000e+00  1.07071e+01 
 6.52453e-03  4.66392e-03 -8.96437e-21  3.47944e+00  6.16397e-04  3.60198e+02  3.60086e+02  6.42649e+00  6.53393e+00  5.50035e-01 -2.96778e+01  5.64459e+01  4.89024e+05 -5.14436e+05  7.92113e+02  0.00000e+00 -2.46199e+04 -1.98293e+03 -2.66028e+04  5.50032e-01  1.00000e+00  2.96863e+01  0.00000e+00  1.15127e+01 
 6.69707e-03  4.90238e-03  1.72236e-20  3.47944e+00  6.01134e-04  3.60196e+02  3.60086e+02  6.38177e+00  6.48500e+00  5.51915e-01 -3.02853e+01  5.78794e+01  5.20932e+05 -5.47210e+05  8.06817e+02  0.00000e+00 -2.54717e+04 -2.06785e+03 -2.75395e+04  5.51913e-01  1.00000e+00  3.02940e+01  0.00000e+00  1.24107e+01 
 6.87356e-03  5.14086e-03  8.28595e-21  3.47944e+00  5.85599e-04  3.60194e+02  3.60087e+02  6.33382e+00  6.43284e+00  5.53835e-01 -3.09660e+01  5.94152e+01  5.56453e+05 -5.83639e+05  8.22270e+02  0.00000e+00 -2.63632e+04 -2.16291e+03 -2.85261e+04  5.53833e-01  1.00000e+00  3.09751e+01  0.00000e+00  1.34191e+01 
 7.05370e-03  5.37934e-03 -1.59677e-20  3.47944e+00  5.69834e-04  3.60193e+02  3.60087e+02  6.28199e+00  6.37680e+00  5.55777e-01 -3.17358e+01  6.10594e+01  5.95965e+05 -6.24239e+05  8.38423e+02  0.00000e+00 -2.74358e+04 -2.27007e+03 -2.97058e+04  5.55775e-01  1.00000e+00  3.17452e+01  0.00000e+00  1.45474e+01 
 7.23722e-03  5.61783e-03  0.00000e+00  3.47944e+00  5.53765e-04  3.60191e+02  3.60087e+02  6.22669e+00  6.31729e+00  5.57755e-01 -3.26234e+01  6.28317e+01  6.40362e+05 -6.69814e+05  8.55493e+02  0.00000e+00 -2.85974e+04 -2.39279e+03 -3.09902e+04  5.57753e-01  1.00000e+00  3.26332e+01  0.00000e+00  1.58253e+01 
 7.42387e-03  5.85632e-03  0.00000e+00  3.47944e+00  5.37446e-04  3.60190e+02  3.60088e+02  6.16653e+00  6.25292e+00  5.59740e-01 -3.36583e+01  6.47400e+01  6.90170e+05 -7.21146e+05  8.73343e+02  0.00000e+00 -3.01031e+04 -2.53466e+03 -3.26378e+04  5.59738e-01  1.00000e+00  3.36685e+01  0.00000e+00  1.72639e+01 
 7.61342e-03  6.09482e-03  0.00000e+00  3.47944e+00  5.20749e-04  3.60188e+02  3.60088e+02  6.10284e+00  6.18504e+00  5.61765e-01 -3.48935e+01  6.68164e+01  7.46897e+05 -7.79558e+05  8.92411e+02  0.00000e+00 -3.17682e+04 -2.70217e+03 -3.44704e+04  5.61764e-01  1.00000e+00  3.49041e+01  0.00000e+00  1.89152e+01 
 7.80566e-03  6.33332e-03  0.00000e+00  3.47944e+00  5.03761e-04  3.60187e+02  3.60089e+02  6.03229e+00  6.11025e+00  5.63793e-01 -3.63883e+01  6.90702e+01  8.11274e+05 -8.46287e+05  9.12295e+02  0.00000e+00 -3.41010e+04 -2.90250e+03 -3.70035e+04  5.63792e-01  1.00000e+00  3.63993e+01  0.00000e+00  2.07916e+01 
 8.00039e-03  6.57182e-03  0.00000e+00  3.47944e+00  4.86269e-04  3.60187e+02  3.60089e+02  5.95904e+00  6.03278e+00  5.65906e-01 -3.82452e+01  7.15555e+01  8.85951e+05 -9.23666e+05  9.33988e+02  0.00000e+00 -3.67807e+04 -3.14858e+03 -3.99293e+04  5.65905e-01  1.00000e+00  3.82567e+01  0.00000e+00  2.29885e+01 
 8.19744e-03  6.81033e-03  1.31016e-20  3.47944e+00  4.68421e-04  3.60186e+02  3.60090e+02  5.87443e+00  5.94386e+00  5.68026e-01 -4.05950e+01  7.42828e+01  9.72007e+05 -1.01372e+06  9.56314e+02  0.00000e+00 -4.07538e+04 -3.45644e+03 -4.42102e+04  5.68026e-01  1.00000e+00  4.06070e+01  0.00000e+00  2.55185e+01 
 8.39664e-03  7.04884e-03  0.00000e+00  3.47944e+00  4.49845e-04  3.60187e+02  3.60090e+02  5.79064e+00  5.85577e+00  5.70274e-01 -4.36544e+01  7.73510e+01  1.07466e+06 -1.12090e+06  9.81824e+02  0.00000e+00 -4.52579e+04 -3.85517e+03 -4.91131e+04  5.70274e-01  1.00000e+00  4.36670e+01  0.00000e+00  2.85714e+01 
 8.59784e-03  7.28736e-03  0.00000e+00  3.47944e+00  4.30805e-04  3.60188e+02  3.60091e+02  5.68514e+00  5.74578e+00  5.72514e-01 -4.77424e+01  8.07706e+01  1.19566e+06 -1.24884e+06  1.00706e+03  0.00000e+00 -5.21771e+04 -4.38529e+03 -5.65624e+04  5.72515e-01  1.00000e+00  4.77556e+01  0.00000e+00  3.21570e+01 
 8.80092e-03  7.52587e-03  0.00000e+00  3.47944e+00  4.10622e-04  3.60190e+02  3.60091e+02  5.59015e+00  5.64638e+00  5.74939e-01 -5.33937e+01  8.47417e+01  1.34640e+06 -1.40734e+06  1.03883e+03  0.00000e+00 -5.99050e+04 -5.12373e+03 -6.50288e+04  5.74939e-01  1.00000e+00  5.34076e+01  0.00000e+00  3.66891e+01 
 9.00573e-03  7.76439e-03 -1.17014e-20  3.47944e+00  3.89775e-04  3.60194e+02  3.60092e+02  5.45125e+00  5.50265e+00  5.77356e-01 -6.14972e+01  8.92754e+01  1.53032e+06 -1.60395e+06  1.06759e+03  0.00000e+00 -7.25607e+04 -6.19092e+03 -7.87516e+04  5.77356e-01  1.00000e+00  6.15119e+01  0.00000e+00  4.21838e+01 
 9.21216e-03  8.00291e-03  0.00000e+00  3.47944e+00  3.67006e-04  3.60201e+02  3.60093e+02  5.34335e+00  5.39020e+00  5.80042e-01 -7.37074e+01  9.48154e+01  1.77577e+06 -1.86381e+06  1.11077e+03  0.00000e+00 -8.69272e+04 -7.84386e+03 -9.47711e+04  5.80042e-01  1.00000e+00  7.37230e+01  0.00000e+00  4.96466e+01 
 9.42012e-03  8.24144e-03  0.00000e+00  3.47944e+00  3.43108e-04  3.60213e+02  3.60094e+02  5.14891e+00  5.19042e+00  5.82751e-01 -9.31166e+01  1.01421e+02  2.09455e+06 -2.20819e+06  1.14483e+03  0.00000e+00 -1.12492e+05 -1.05501e+04 -1.23042e+05  5.82751e-01  1.00000e+00  9.31332e+01  0.00000e+00  5.92599e+01 
 9.62949e-03  8.47996e-03  0.00000e+00  3.47944e+00  3.15800e-04  3.60231e+02  3.60095e+02  5.01772e+00  5.05459e+00  5.85869e-01 -1.26856e+02  1.10193e+02  2.57126e+06 -2.71627e+06  1.21039e+03  0.00000e+00 -1.43800e+05 -1.55322e+04 -1.59333e+05  5.85869e-01  1.00000e+00  1.26874e+02  0.00000e+00  7.39373e+01 
 9.84019e-03  8.71849e-03  0.00000e+00  3.47944e+00  2.86004e-04  3.60265e+02  3.60096e+02  4.72520e+00  4.75608e+00  5.89012e-01 -1.91447e+02  1.21676e+02  3.27997e+06 -3.48688e+06  1.25748e+03  0.00000e+00 -2.05653e+05 -2.57444e+04 -2.31397e+05  5.89013e-01  1.00000e+00  1.91467e+02  0.00000e+00  9.55652e+01 
 1.00521e-02  8.95702e-03  0.00000e+00  3.47944e+00  2.49490e-04  3.60331e+02  3.60097e+02  4.52107e+00  4.54725e+00  5.92656e-01 -3.41862e+02  1.39486e+02  4.60715e+06 -4.89930e+06  1.37193e+03  0.00000e+00 -2.90782e+05 -5.23746e+04 -3.43156e+05  5.92656e-01  1.00000e+00  3.41884e+02  0.00000e+00  1.37085e+02 
 1.02653e-02  9.19555e-03  0.00000e+00  3.47944e+00  2.06753e-04  3.60492e+02  3.60099e+02  4.00135e+00  4.02039e+00  5.96406e-01 -7.96335e+02  1.68325e+02  7.38511e+06 -7.79499e+06  1.45727e+03  0.00000e+00 -4.08419e+05 -1.46297e+05 -5.54716e+05  5.96409e-01  1.00000e+00  7.96359e+02  0.00000e+00  2.26088e+02 
 1.04795e-02  9.43408e-03  0.00000e+00  3.47944e+00  1.57862e-04  3.61072e+02  3.60101e+02  3.39687e+00  3.40676e+00  6.02276e-01 -7.06452e+03  2.20464e+02  1.56938e+07 -1.37220e+07  1.65901e+03  6.73818e+05  2.64727e+06 -2.65365e+06 -6.38154e+03  6.02279e-01  1.00000e+00  7.06454e+03  3.97650e+03  5.72496e+02 
