# Code_Saturne plot output (1D profile)
#
# Iteration output: 2534
# Time output:      2.30008e+01
#
#COLUMN_TITLES: Distance | X | Y | Z | diameter_Field2 | temp_Field1 | temp_Field2 | Velocity_Field1[Z] | Velocity_Field2[Z] | vol_f_Field2 | mass_trans_Field1 | Xd_Field2 | BK | COAL | COMP | NUCL | W1 | MT | SMBR | ALPBB | CONDNUM | GAMA | GAMANUC | epsilon_Field1
 4.56474e-03  1.39645e-04  0.00000e+00  3.47944e+00  1.00000e-05  3.54606e+02  3.60052e+02  3.49821e+00  3.49862e+00  1.95629e-15 -2.44016e-10  3.48594e+03  0.00000e+00 -2.72309e-09  1.03902e+04  0.00000e+00  1.03902e+04 -4.75368e-01  2.12787e+08  3.44698e-18  3.44698e-12  2.44016e-10  0.00000e+00  2.02156e-01 
 4.57812e-03  3.76525e-04  4.25872e-21  3.47944e+00  1.00000e-05  3.54612e+02  3.60052e+02  3.49787e+00  3.49827e+00  6.47638e-16 -2.17977e-11  3.48594e+03  0.00000e+00 -3.64693e-09  1.04083e+04  0.00000e+00  1.04083e+04 -4.24643e-02  1.62142e+08  4.60240e-18  4.60240e-12  2.17978e-11  0.00000e+00  2.04028e-01 
 4.60371e-03  6.13858e-04  0.00000e+00  3.47944e+00  1.00000e-05  3.54624e+02  3.60052e+02  3.49632e+00  3.49672e+00  6.72476e-16  9.24845e-13  3.48594e+03  0.00000e+00 -4.83838e-09  1.03633e+04  0.00000e+00  1.03633e+04  1.80161e-03  1.21721e+08  6.06990e-18  6.06990e-12 -9.24802e-13  0.00000e+00  2.07731e-01 
 4.64138e-03  8.51483e-04  0.00000e+00  3.47944e+00  1.00000e-05  3.54641e+02  3.60052e+02  3.49416e+00  3.49457e+00  9.51866e-16 -7.08505e-11  3.48594e+03  0.00000e+00 -2.75222e-09  1.03992e+04  0.00000e+00  1.03992e+04 -1.38024e-01  2.14359e+08  3.42266e-18  3.42266e-12  7.08506e-11  0.00000e+00  2.13322e-01 
 4.69084e-03  1.08931e-03  0.00000e+00  3.47944e+00  1.00000e-05  3.54665e+02  3.60052e+02  3.49140e+00  3.49180e+00  4.86817e-15 -9.68247e-10  3.48594e+03  0.00000e+00 -3.11251e-09  8.36734e+03  0.00000e+00  8.36734e+03 -1.88625e+00  1.98643e+08  3.82646e-18  3.82646e-12  9.68247e-10  0.00000e+00  2.20896e-01 
 4.75174e-03  1.32727e-03  1.05001e-20  3.47944e+00  1.00000e-05  3.54694e+02  3.60052e+02  3.48776e+00  3.48816e+00  1.32410e-15  5.85423e-13  3.48594e+03  0.00000e+00 -3.13411e-09  1.03400e+04  0.00000e+00  1.03400e+04  1.14022e-03  1.93105e+08  3.79910e-18  3.79910e-12 -5.85296e-13  0.00000e+00  2.30555e-01 
 4.82366e-03  1.56534e-03  0.00000e+00  3.47944e+00  1.00000e-05  3.54729e+02  3.60052e+02  3.48337e+00  3.48378e+00  1.63441e-15 -7.03854e-11  3.48594e+03  0.00000e+00 -4.38305e-09  1.03396e+04  0.00000e+00  1.03396e+04 -1.37118e-01  1.40458e+08  5.22597e-18  5.22597e-12  7.03854e-11  0.00000e+00  2.42425e-01 
 4.90611e-03  1.80349e-03  8.81027e-21  3.47944e+00  1.00000e-05  3.54770e+02  3.60053e+02  3.47844e+00  3.47885e+00  6.33107e-16  9.56521e-14  3.48594e+03  0.00000e+00 -1.59244e-09  1.03551e+04  0.00000e+00  1.03551e+04  1.86175e-04  3.93683e+08  1.86333e-18  1.86333e-12 -9.55673e-14  0.00000e+00  2.56673e-01 
 4.99859e-03  2.04170e-03  0.00000e+00  3.47944e+00  1.00000e-05  3.54818e+02  3.60053e+02  3.47225e+00  3.47266e+00  1.44115e-15  5.30501e-13  3.48594e+03  0.00000e+00 -3.01157e-09  1.02861e+04  0.00000e+00  1.02861e+04  1.03331e-03  2.12648e+08  3.45109e-18  3.45109e-12 -5.30416e-13  0.00000e+00  2.73469e-01 
 5.10055e-03  2.27996e-03  7.58893e-21  3.47944e+00  1.00000e-05  3.54871e+02  3.60053e+02  3.46573e+00  3.46613e+00  1.83438e-15  9.78600e-13  3.48594e+03  0.00000e+00 -5.69480e-09  1.02543e+04  0.00000e+00  1.02543e+04  1.90634e-03  1.15069e+08  6.37919e-18  6.37919e-12 -9.78557e-13  0.00000e+00  2.93031e-01 
 5.21143e-03  2.51826e-03  7.09702e-21  3.47944e+00  1.00000e-05  3.54930e+02  3.60053e+02  3.45815e+00  3.45855e+00  7.68454e-16  1.62087e-12  3.48595e+03  0.00000e+00 -9.59365e-09  1.03094e+04  0.00000e+00  1.03094e+04  3.15746e-03  6.99628e+07  1.04869e-17  1.04869e-11 -1.62078e-12  0.00000e+00  3.15636e-01 
 5.33068e-03  2.75659e-03  1.33300e-20  3.47944e+00  1.00000e-05  3.54996e+02  3.60053e+02  3.44970e+00  3.45010e+00  1.60900e-15 -2.56240e-10  3.48595e+03  0.00000e+00 -2.21217e-09  9.85923e+03  0.00000e+00  9.85923e+03 -4.99184e-01  3.11506e+08  2.35626e-18  2.35626e-12  2.56240e-10  0.00000e+00  3.41513e-01 
 5.45775e-03  2.99495e-03  1.25651e-20  3.47944e+00  1.00000e-05  3.55067e+02  3.60053e+02  3.44040e+00  3.44080e+00  2.39619e-15 -3.97657e-10  3.48595e+03  0.00000e+00 -3.27500e-09  1.02623e+04  0.00000e+00  1.02623e+04 -7.74680e-01  2.16300e+08  3.39459e-18  3.39459e-12  3.97657e-10  0.00000e+00  3.71005e-01 
 5.59212e-03  3.23333e-03  0.00000e+00  3.47944e+00  1.00000e-05  3.55145e+02  3.60053e+02  3.43007e+00  3.43047e+00  7.15159e-16 -7.66672e-11  3.48595e+03 5.37345e-276 -1.56273e-08  1.02800e+04  0.00000e+00  1.02800e+04 -1.49357e-01  4.67773e+07  1.57447e-17  1.57447e-11  7.66673e-11  0.00000e+00  4.04457e-01 
 5.73326e-03  3.47172e-03  0.00000e+00  3.47944e+00  1.00000e-05  3.55229e+02  3.60053e+02  3.41859e+00  3.41899e+00  5.81925e-16  1.68172e-11  3.48595e+03 1.43478e-259 -1.12521e-07  1.02063e+04  0.00000e+00  1.02063e+04  3.27618e-02  6.73800e+06  1.10089e-16  1.10089e-10 -1.68172e-11  0.00000e+00  4.42213e-01 
 5.88069e-03  3.71014e-03 -5.35987e-21  3.47944e+00  1.00000e-05  3.55319e+02  3.60053e+02  3.40599e+00  3.40639e+00  8.56439e-16  1.65957e-10  3.48595e+03 1.08147e-243 -1.12891e-06  9.94203e+03  0.00000e+00  9.94203e+03  3.23303e-01  6.85803e+05  1.07176e-15  1.07176e-09 -1.65957e-10  0.00000e+00  4.84663e-01 
 6.03395e-03  3.94857e-03  5.10973e-21  3.47944e+00  1.00000e-05  3.55415e+02  3.60053e+02  3.39229e+00  3.39269e+00  7.17244e-15  1.61443e-09  3.48595e+03 1.93902e-228 -1.14356e-05  8.47438e+03  0.00000e+00  8.47438e+03  3.14510e+00  6.98541e+04  1.05280e-14  1.05280e-08 -1.61443e-09  0.00000e+00  5.32270e-01 
 6.19261e-03  4.18701e-03  0.00000e+00  3.47944e+00  1.00002e-05  3.55517e+02  3.60053e+02  3.37736e+00  3.37766e+00  7.07593e-14  1.56366e-08  3.48589e+03 7.71563e-214 -1.13226e-04  8.33498e+03  0.00000e+00  8.33498e+03  3.04619e+01  7.34006e+03  1.01025e-13  1.01025e-07 -1.56366e-08  0.00000e+00  5.85591e-01 
 6.35626e-03  4.42546e-03  0.00000e+00  3.47944e+00  1.00005e-05  3.55626e+02  3.60053e+02  3.36113e+00  3.36142e+00  7.03649e-13  1.46398e-07  3.48580e+03 6.43113e-200 -1.11208e-03  8.31419e+03  0.00000e+00  8.31419e+03  2.85200e+02  7.67474e+02  9.61151e-13  9.61151e-07 -1.46398e-07  0.00000e+00  6.45265e-01 
 6.52453e-03  4.66392e-03 -8.96437e-21  3.47944e+00  1.00000e-05  3.55741e+02  3.60053e+02  3.34354e+00  3.34376e+00  7.24943e-12  1.44497e-06  3.48597e+03 1.10533e-186 -1.13927e-02  8.32204e+03  0.00000e+00  8.32203e+03  2.81498e+03  7.06563e+01  9.53368e-12  9.53368e-06 -1.44497e-06  0.00000e+00  7.12044e-01 
 6.69707e-03  4.90238e-03  1.72236e-20  3.47944e+00  1.00000e-05  3.55863e+02  3.60053e+02  3.32439e+00  3.32457e+00  7.41340e-11  1.42946e-05  3.48597e+03 3.83046e-174 -1.17064e-01  8.41406e+03  0.00000e+00  8.41395e+03  2.78394e+04  4.07291e-01  9.48142e-11  9.48142e-05 -1.42904e-05  0.00000e+00  7.86636e-01 
 6.87356e-03  5.14086e-03  8.28595e-21  3.47944e+00  1.00000e-05  3.55992e+02  3.60053e+02  3.30388e+00  3.30406e+00  7.31954e-10  1.41075e-04  3.48597e+03 2.86357e-162 -1.16576e+00  8.99117e+03  0.00000e+00  8.99001e+03  2.74701e+05  2.83691e+05  9.13503e-10  9.13503e-04 -1.41008e-04  0.00000e+00  8.70081e-01 
 7.05370e-03  5.37934e-03 -1.59677e-20  3.47944e+00  1.00000e-05  3.56128e+02  3.60052e+02  3.28168e+00  3.28184e+00  7.17240e-09  1.30900e-03  3.48593e+03 4.98406e-151 -1.12758e+01  8.50939e+03  0.00000e+00  8.49812e+03  2.54879e+06  2.55729e+06  8.54514e-09  8.54514e-03 -1.30835e-03  0.00000e+00  9.63685e-01 
 7.23722e-03  5.61783e-03  0.00000e+00  3.47944e+00  1.00000e-05  3.56271e+02  3.60051e+02  3.25786e+00  3.25801e+00  6.81192e-08  1.17421e-02  3.48589e+03 2.19543e-140 -1.05596e+02  7.92799e+03  0.00000e+00  7.82239e+03  2.28627e+07  2.28705e+07  7.73568e-08  7.73568e-02 -1.17360e-02  0.00000e+00  1.06893e+00 
 7.42387e-03  5.85632e-03  0.00000e+00  3.47944e+00  1.00000e-05  3.56423e+02  3.60051e+02  3.23212e+00  3.23225e+00  6.27079e-07  1.03559e-01  3.48589e+03 2.74889e-130 -9.74077e+02  7.88916e+03  0.00000e+00  6.91508e+03  2.01632e+08  2.01639e+08  6.89419e-07  6.89419e-01 -1.03503e-01  0.00000e+00  1.18774e+00 
 7.61342e-03  6.09482e-03  0.00000e+00  3.47944e+00  1.00000e-05  3.56583e+02  3.60051e+02  3.20466e+00  3.20479e+00  5.49104e-06  9.13955e-01  3.48589e+03 1.10652e-120 -8.71244e+03  7.52284e+03  0.00000e+00 -1.18960e+03  2.98897e+08  2.98895e+08  5.95339e-06  1.00000e+00 -9.13439e-01  0.00000e+00  1.32273e+00 
 7.80566e-03  6.33332e-03  0.00000e+00  3.47944e+00  1.00000e-05  3.56752e+02  3.60051e+02  3.17525e+00  3.17536e+00  4.77632e-05  7.46437e+00  3.48590e+03 1.72123e-111 -7.50394e+04  7.54947e+03  0.00000e+00 -6.74899e+04  2.93848e+08  2.93780e+08  4.94561e-05  1.00000e+00 -7.45994e+00  0.00000e+00  1.47767e+00 
 8.00039e-03  6.57182e-03  0.00000e+00  3.47944e+00  1.25146e-05  3.56931e+02  3.60051e+02  3.14415e+00  3.14432e+00  2.94237e-04  4.51202e+01  2.78547e+03  2.60756e-66 -3.17885e+05  6.23590e+03  0.00000e+00 -3.11649e+05  2.32070e+08  2.31758e+08  2.99499e-04  1.00000e+00 -4.50919e+01  0.00000e+00  1.65726e+00 
 8.19744e-03  6.81033e-03  1.31016e-20  3.47944e+00  2.33393e-05  3.57115e+02  3.60051e+02  3.11044e+00  3.11121e+00  9.87717e-04  1.10474e+02  1.49358e+03  5.24182e-16 -3.86167e+05  3.68359e+03  0.00000e+00 -3.82484e+05  9.28278e+07  9.24453e+07  9.91118e-04  1.00000e+00 -1.10401e+02  0.00000e+00  1.86947e+00 
 8.39664e-03  7.04884e-03  0.00000e+00  3.47944e+00  3.76327e-05  3.57305e+02  3.60052e+02  3.07460e+00  3.07681e+00  2.38813e-03  1.22265e+02  9.26301e+02  5.23717e-02 -4.30975e+05  2.32463e+03  0.00000e+00 -4.28651e+05  2.63971e+07  2.59684e+07  2.39368e-03  1.00000e+00 -1.22178e+02  0.00000e+00  2.12493e+00 
 8.59784e-03  7.28736e-03  0.00000e+00  3.47944e+00  4.97140e-05  3.57503e+02  3.60052e+02  3.03471e+00  3.03843e+00  4.61309e-03  1.37156e+02  7.01196e+02  4.70551e+02 -5.39806e+05  1.75632e+03  0.00000e+00 -5.37579e+05  1.16121e+07  1.10745e+07  4.62098e-03  1.00000e+00 -1.37051e+02  0.00000e+00  2.44148e+00 
 8.80092e-03  7.52587e-03  0.00000e+00  3.47944e+00  6.05667e-05  3.57713e+02  3.60052e+02  2.99088e+00  2.99601e+00  8.25116e-03  1.66944e+02  5.75552e+02  2.45406e+04 -7.21323e+05  1.43005e+03  0.00000e+00 -6.95352e+05  6.48748e+06  5.79213e+06  8.26327e-03  1.00000e+00 -1.66806e+02  0.00000e+00  2.84351e+00 
 9.00573e-03  7.76439e-03 -1.17014e-20  3.47944e+00  7.11654e-05  3.57933e+02  3.60052e+02  2.94128e+00  2.94762e+00  1.38738e-02  2.03298e+02  4.89837e+02  2.04535e+05 -9.68542e+05  1.20181e+03  0.00000e+00 -7.62805e+05  3.99916e+06  3.23635e+06  1.38916e-02  1.00000e+00 -2.03111e+02  0.00000e+00  3.37054e+00 
 9.21216e-03  8.00291e-03  0.00000e+00  3.47944e+00  8.12961e-05  3.58167e+02  3.60052e+02  2.88178e+00  2.88925e+00  2.22408e-02  2.45826e+02  4.28797e+02  6.80508e+05 -1.30849e+06  1.03534e+03  0.00000e+00 -6.26947e+05  2.64072e+06  2.01377e+06  2.22661e-02  1.00000e+00 -2.45574e+02  0.00000e+00  4.07642e+00 
 9.42012e-03  8.24144e-03  0.00000e+00  3.47944e+00  9.13119e-05  3.58415e+02  3.60052e+02  2.81478e+00  2.82318e+00  3.45742e-02  2.92482e+02  3.81764e+02  1.41941e+06 -1.77777e+06  9.00083e+02  0.00000e+00 -3.57453e+05  1.79951e+06  1.44206e+06  3.46073e-02  1.00000e+00 -2.92138e+02  0.00000e+00  5.06360e+00 
 9.62949e-03  8.47996e-03  0.00000e+00  3.47944e+00  1.02307e-04  3.58678e+02  3.60052e+02  2.72704e+00  2.73674e+00  5.21963e-02  3.31746e+02  3.40738e+02  2.28454e+06 -2.37544e+06  7.80541e+02  0.00000e+00 -9.01185e+04  1.20651e+06  1.11639e+06  5.22446e-02  1.00000e+00 -3.31284e+02  0.00000e+00  6.49525e+00 
 9.84019e-03  8.71849e-03  0.00000e+00  3.47944e+00  1.15524e-04  3.58962e+02  3.60053e+02  2.62750e+00  2.63872e+00  7.63988e-02  3.38590e+02  3.01753e+02  3.14655e+06 -3.07311e+06  6.62030e+02  0.00000e+00  7.41070e+04  7.44929e+05  8.19036e+05  7.64593e-02  1.00000e+00 -3.38000e+02  0.00000e+00  8.78673e+00 
 1.00521e-02  8.95702e-03  0.00000e+00  3.47944e+00  1.31367e-04  3.59282e+02  3.60053e+02  2.47516e+00  2.48747e+00  1.06354e-01  2.85432e+02  2.65363e+02  3.90638e+06 -3.77983e+06  5.49524e+02  0.00000e+00  1.27098e+05  3.96522e+05  5.23621e+05  1.06421e-01  1.00000e+00 -2.84735e+02  0.00000e+00  1.27688e+01 
 1.02653e-02  9.19555e-03  0.00000e+00  3.47944e+00  1.48216e-04  3.59689e+02  3.60053e+02  2.28792e+00  2.30040e+00  1.40791e-01  1.55570e+02  2.35199e+02  4.79876e+06 -4.57610e+06  4.42708e+02  0.00000e+00  2.23102e+05  1.44364e+05  3.67466e+05  1.40850e-01  1.00000e+00 -1.54781e+02  0.00000e+00  2.18512e+01 
 1.04795e-02  9.43408e-03  0.00000e+00  3.47944e+00  1.67447e-04  3.60396e+02  3.60054e+02  1.91554e+00  1.92828e+00  1.76529e-01 -2.66928e+03  2.08190e+02  6.44041e+06 -5.20227e+06  3.51424e+02  2.27624e+06  3.51473e+06 -3.60410e+06 -8.93710e+04  1.76620e-01  1.00000e+00  2.67104e+03  2.34956e+03  5.58013e+01 
