# Code_Saturne plot output (1D profile)
#
# Iteration output: 13600
# Time output:      2.30003e+01
#
#COLUMN_TITLES: Distance | X | Y | Z | diameter_Field2 | temp_Field1 | temp_Field2 | Velocity_Field1[Z] | Velocity_Field2[Z] | vol_f_Field2 | mass_trans_Field1 | Xd_Field2 | BK | COAL | COMP | NUCL | W1 | MT | SMBR | ALPBB | CONDNUM | GAMA | GAMANUC | epsilon_Field1
 4.56474e-03  1.39645e-04  0.00000e+00  3.47944e+00  9.44062e-04  3.60366e+02  3.60145e+02  9.03749e+00  9.22089e+00  7.01374e-01 -3.75333e+01  3.67425e+01  7.59729e+04 -7.06791e+04  1.28442e+03  0.00000e+00  6.57819e+03 -8.79487e+02  5.69870e+03  7.01373e-01  1.00000e+00  3.75342e+01  0.00000e+00  1.35124e+01 
 4.57812e-03  3.76525e-04  4.25872e-21  3.47944e+00  9.42593e-04  3.60365e+02  3.60145e+02  9.03636e+00  9.21983e+00  7.01414e-01 -3.75812e+01  3.67998e+01  7.62671e+04 -7.09391e+04  1.28658e+03  0.00000e+00  6.61461e+03 -8.81932e+02  5.73268e+03  7.01413e-01  1.00000e+00  3.75822e+01  0.00000e+00  1.35691e+01 
 4.60371e-03  6.13858e-04  0.00000e+00  3.47944e+00  9.39340e-04  3.60365e+02  3.60145e+02  9.03187e+00  9.21510e+00  7.01461e-01 -3.76804e+01  3.69272e+01  7.69050e+04 -7.15883e+04  1.29064e+03  0.00000e+00  6.60731e+03 -8.87261e+02  5.72005e+03  7.01460e-01  1.00000e+00  3.76813e+01  0.00000e+00  1.36809e+01 
 4.64138e-03  8.51483e-04  0.00000e+00  3.47944e+00  9.34369e-04  3.60364e+02  3.60145e+02  9.02560e+00  9.20808e+00  7.01553e-01 -3.78160e+01  3.71237e+01  7.78771e+04 -7.26275e+04  1.29687e+03  0.00000e+00  6.54649e+03 -8.95074e+02  5.65142e+03  7.01552e-01  1.00000e+00  3.78169e+01  0.00000e+00  1.38481e+01 
 4.69084e-03  1.08931e-03  0.00000e+00  3.47944e+00  9.27704e-04  3.60364e+02  3.60145e+02  9.01691e+00  9.19813e+00  7.01682e-01 -3.79887e+01  3.73904e+01  7.91985e+04 -7.40751e+04  1.30518e+03  0.00000e+00  6.42862e+03 -9.05458e+02  5.52316e+03  7.01681e-01  1.00000e+00  3.79897e+01  0.00000e+00  1.40727e+01 
 4.75174e-03  1.32727e-03  1.05001e-20  3.47944e+00  9.19409e-04  3.60363e+02  3.60145e+02  9.00610e+00  9.18558e+00  7.01871e-01 -3.81992e+01  3.77278e+01  8.08755e+04 -7.59470e+04  1.31567e+03  0.00000e+00  6.24413e+03 -9.18444e+02  5.32569e+03  7.01870e-01  1.00000e+00  3.82002e+01  0.00000e+00  1.43571e+01 
 4.82366e-03  1.56534e-03  0.00000e+00  3.47944e+00  9.09563e-04  3.60361e+02  3.60145e+02  8.99294e+00  9.17026e+00  7.02100e-01 -3.84493e+01  3.81363e+01  8.29290e+04 -7.82613e+04  1.32828e+03  0.00000e+00  5.99598e+03 -9.34162e+02  5.06182e+03  7.02098e-01  1.00000e+00  3.84503e+01  0.00000e+00  1.47041e+01 
 4.90611e-03  1.80349e-03  8.81027e-21  3.47944e+00  8.98294e-04  3.60360e+02  3.60145e+02  8.97751e+00  9.15229e+00  7.02407e-01 -3.87370e+01  3.86148e+01  8.53629e+04 -8.10261e+04  1.34300e+03  0.00000e+00  5.67985e+03 -9.52544e+02  4.72731e+03  7.02404e-01  1.00000e+00  3.87380e+01  0.00000e+00  1.51178e+01 
 4.99859e-03  2.04170e-03  0.00000e+00  3.47944e+00  8.85720e-04  3.60359e+02  3.60145e+02  8.95968e+00  9.13159e+00  7.02766e-01 -3.90611e+01  3.91631e+01  8.82025e+04 -8.42570e+04  1.35976e+03  0.00000e+00  5.30527e+03 -9.73655e+02  4.33161e+03  7.02763e-01  1.00000e+00  3.90621e+01  0.00000e+00  1.56025e+01 
 5.10055e-03  2.27996e-03  7.58893e-21  3.47944e+00  8.71997e-04  3.60357e+02  3.60146e+02  8.93939e+00  9.10812e+00  7.03218e-01 -3.94178e+01  3.97795e+01  9.14550e+04 -8.79608e+04  1.37852e+03  0.00000e+00  4.87273e+03 -9.97372e+02  3.87535e+03  7.03214e-01  1.00000e+00  3.94188e+01  0.00000e+00  1.61639e+01 
 5.21143e-03  2.51826e-03  7.09702e-21  3.47944e+00  8.57238e-04  3.60355e+02  3.60146e+02  8.91647e+00  9.08175e+00  7.03749e-01 -3.98072e+01  4.04645e+01  9.51497e+04 -9.21648e+04  1.39916e+03  0.00000e+00  4.38408e+03 -1.02380e+03  3.36029e+03  7.03745e-01  1.00000e+00  3.98082e+01  0.00000e+00  1.68078e+01 
 5.33068e-03  2.75659e-03  1.33300e-20  3.47944e+00  8.41590e-04  3.60353e+02  3.60146e+02  8.89086e+00  9.05245e+00  7.04376e-01 -4.02248e+01  4.12171e+01  9.93066e+04 -9.68841e+04  1.42167e+03  0.00000e+00  3.84415e+03 -1.05284e+03  2.79131e+03  7.04372e-01  1.00000e+00  4.02258e+01  0.00000e+00  1.75416e+01 
 5.45775e-03  2.99495e-03  1.25651e-20  3.47944e+00  8.25143e-04  3.60351e+02  3.60146e+02  8.86249e+00  9.02017e+00  7.05112e-01 -4.06720e+01  4.20389e+01  1.03958e+05 -1.02166e+05  1.44605e+03  0.00000e+00  3.23778e+03 -1.08464e+03  2.15314e+03  7.05108e-01  1.00000e+00  4.06731e+01  0.00000e+00  1.83733e+01 
 5.59212e-03  3.23333e-03  0.00000e+00  3.47944e+00  8.08031e-04  3.60348e+02  3.60147e+02  8.83116e+00  8.98475e+00  7.05948e-01 -4.11440e+01  4.29294e+01  1.09141e+05 -1.08033e+05  1.47203e+03  0.00000e+00  2.57982e+03 -1.11914e+03  1.46068e+03  7.05944e-01  1.00000e+00  4.11451e+01  0.00000e+00  1.93126e+01 
 5.73326e-03  3.47172e-03  0.00000e+00  3.47944e+00  7.90326e-04  3.60346e+02  3.60147e+02  8.79670e+00  8.94604e+00  7.06935e-01 -4.16439e+01  4.38914e+01  1.14885e+05 -1.14556e+05  1.49982e+03  0.00000e+00  1.82866e+03 -1.15650e+03  6.72155e+02  7.06931e-01  1.00000e+00  4.16450e+01  0.00000e+00  2.03702e+01 
 5.88069e-03  3.71014e-03 -5.35987e-21  3.47944e+00  7.72144e-04  3.60343e+02  3.60147e+02  8.75908e+00  8.90402e+00  7.07994e-01 -4.21674e+01  4.49253e+01  1.21261e+05 -1.21768e+05  1.52944e+03  0.00000e+00  1.02208e+03 -1.19683e+03 -1.74751e+02  7.07990e-01  1.00000e+00  4.21686e+01  0.00000e+00  2.15571e+01 
 6.03395e-03  3.94857e-03  5.10973e-21  3.47944e+00  7.53545e-04  3.60340e+02  3.60148e+02  8.71800e+00  8.85842e+00  7.09224e-01 -4.27180e+01  4.60345e+01  1.28292e+05 -1.29763e+05  1.56108e+03  0.00000e+00  9.02219e+01 -1.24024e+03 -1.15002e+03  7.09220e-01  1.00000e+00  4.27192e+01  0.00000e+00  2.28885e+01 
 6.19261e-03  4.18701e-03  0.00000e+00  3.47944e+00  7.34619e-04  3.60337e+02  3.60148e+02  8.67347e+00  8.80923e+00  7.10520e-01 -4.32945e+01  4.72208e+01  1.36080e+05 -1.38594e+05  1.59457e+03  0.00000e+00 -9.19241e+02 -1.28702e+03 -2.20626e+03  7.10517e-01  1.00000e+00  4.32958e+01  0.00000e+00  2.43786e+01 
 6.35626e-03  4.42546e-03  0.00000e+00  3.47944e+00  7.15394e-04  3.60334e+02  3.60149e+02  8.62528e+00  8.75630e+00  7.11951e-01 -4.39020e+01  4.84903e+01  1.44689e+05 -1.48386e+05  1.62998e+03  0.00000e+00 -2.06696e+03 -1.33747e+03 -3.40444e+03  7.11948e-01  1.00000e+00  4.39033e+01  0.00000e+00  2.60495e+01 
 6.52453e-03  4.66392e-03 -8.96437e-21  3.47944e+00  6.95917e-04  3.60331e+02  3.60149e+02  8.57326e+00  8.69942e+00  7.13403e-01 -4.45477e+01  4.98480e+01  1.54263e+05 -1.59256e+05  1.66713e+03  0.00000e+00 -3.32534e+03 -1.39230e+03 -4.71764e+03  7.13402e-01  1.00000e+00  4.45491e+01  0.00000e+00  2.79201e+01 
 6.69707e-03  4.90238e-03  1.72236e-20  3.47944e+00  6.76252e-04  3.60328e+02  3.60150e+02  8.51692e+00  8.63819e+00  7.14963e-01 -4.52360e+01  5.12981e+01  1.64873e+05 -1.71316e+05  1.70592e+03  0.00000e+00 -4.73755e+03 -1.45176e+03 -6.18931e+03  7.14963e-01  1.00000e+00  4.52374e+01  0.00000e+00  3.00203e+01 
 6.87356e-03  5.14086e-03  8.28595e-21  3.47944e+00  6.56436e-04  3.60325e+02  3.60150e+02  8.45617e+00  8.57247e+00  7.16563e-01 -4.59811e+01  5.28473e+01  1.76684e+05 -1.84725e+05  1.74632e+03  0.00000e+00 -6.29442e+03 -1.51685e+03 -7.81127e+03  7.16564e-01  1.00000e+00  4.59826e+01  0.00000e+00  3.23798e+01 
 7.05370e-03  5.37934e-03 -1.59677e-20  3.47944e+00  6.36504e-04  3.60321e+02  3.60151e+02  8.39049e+00  8.50179e+00  7.18258e-01 -4.67931e+01  5.45030e+01  1.89825e+05 -1.99658e+05  1.78810e+03  0.00000e+00 -8.04473e+03 -1.58823e+03 -9.63297e+03  7.18261e-01  1.00000e+00  4.67946e+01  0.00000e+00  3.50396e+01 
 7.23722e-03  5.61783e-03  0.00000e+00  3.47944e+00  6.16463e-04  3.60318e+02  3.60152e+02  8.31966e+00  8.42589e+00  7.20008e-01 -4.76997e+01  5.62756e+01  2.04517e+05 -2.16360e+05  1.83166e+03  0.00000e+00 -1.00118e+04 -1.66760e+03 -1.16794e+04  7.20012e-01  1.00000e+00  4.77013e+01  0.00000e+00  3.80432e+01 
 7.42387e-03  5.85632e-03  0.00000e+00  3.47944e+00  5.96313e-04  3.60315e+02  3.60153e+02  8.24310e+00  8.34426e+00  7.21816e-01 -4.87276e+01  5.81781e+01  2.21010e+05 -2.35111e+05  1.87709e+03  0.00000e+00 -1.22238e+04 -1.75672e+03 -1.39805e+04  7.21821e-01  1.00000e+00  4.87293e+01  0.00000e+00  4.14506e+01 
 7.61342e-03  6.09482e-03  0.00000e+00  3.47944e+00  5.76033e-04  3.60312e+02  3.60153e+02  8.16040e+00  8.25639e+00  7.23697e-01 -4.99275e+01  6.02273e+01  2.39608e+05 -2.56304e+05  1.92458e+03  0.00000e+00 -1.47720e+04 -1.85853e+03 -1.66306e+04  7.23703e-01  1.00000e+00  4.99292e+01  0.00000e+00  4.53338e+01 
 7.80566e-03  6.33332e-03  0.00000e+00  3.47944e+00  5.55575e-04  3.60309e+02  3.60154e+02  8.07085e+00  8.16168e+00  7.25625e-01 -5.13635e+01  6.24461e+01  2.60755e+05 -2.80444e+05  1.97441e+03  0.00000e+00 -1.77147e+04 -1.97716e+03 -1.96918e+04  7.25632e-01  1.00000e+00  5.13654e+01  0.00000e+00  4.97885e+01 
 8.00039e-03  6.57182e-03  0.00000e+00  3.47944e+00  5.34886e-04  3.60307e+02  3.60155e+02  7.97447e+00  8.06008e+00  7.27631e-01 -5.31369e+01  6.48626e+01  2.84979e+05 -3.08173e+05  2.02565e+03  0.00000e+00 -2.11682e+04 -2.11872e+03 -2.32869e+04  7.27639e-01  1.00000e+00  5.31389e+01  0.00000e+00  5.49440e+01 
 8.19744e-03  6.81033e-03  1.31016e-20  3.47944e+00  5.13854e-04  3.60305e+02  3.60156e+02  7.86902e+00  7.94934e+00  7.29678e-01 -5.53973e+01  6.75187e+01  3.13096e+05 -3.40443e+05  2.08176e+03  0.00000e+00 -2.52645e+04 -2.29285e+03 -2.75573e+04  7.29687e-01  1.00000e+00  5.53993e+01  0.00000e+00  6.09722e+01 
 8.39664e-03  7.04884e-03  0.00000e+00  3.47944e+00  4.92379e-04  3.60304e+02  3.60157e+02  7.75483e+00  7.82980e+00  7.31813e-01 -5.83708e+01  7.04650e+01  3.46113e+05 -3.78470e+05  2.14083e+03  0.00000e+00 -3.02166e+04 -2.51399e+03 -3.27306e+04  7.31822e-01  1.00000e+00  5.83730e+01  0.00000e+00  6.81178e+01 
 8.59784e-03  7.28736e-03  0.00000e+00  3.47944e+00  4.70258e-04  3.60303e+02  3.60158e+02  7.62817e+00  7.69766e+00  7.33928e-01 -6.24356e+01  7.37812e+01  3.85750e+05 -4.24207e+05  2.20930e+03  0.00000e+00 -3.62479e+04 -2.80748e+03 -3.90554e+04  7.33941e-01  1.00000e+00  6.24379e+01  0.00000e+00  7.67252e+01 
 8.80092e-03  7.52587e-03  0.00000e+00  3.47944e+00  4.47324e-04  3.60304e+02  3.60159e+02  7.48807e+00  7.55193e+00  7.36216e-01 -6.81712e+01  7.75658e+01  4.33981e+05 -4.80368e+05  2.28787e+03  0.00000e+00 -4.40990e+04 -3.21259e+03 -4.73116e+04  7.36230e-01  1.00000e+00  6.81737e+01  0.00000e+00  8.72985e+01 
 9.00573e-03  7.76439e-03 -1.17014e-20  3.47944e+00  4.23249e-04  3.60307e+02  3.60161e+02  7.33097e+00  7.38911e+00  7.38438e-01 -7.66495e+01  8.19800e+01  4.94748e+05 -5.51591e+05  2.38127e+03  0.00000e+00 -5.44625e+04 -3.80622e+03 -5.82687e+04  7.38451e-01  1.00000e+00  7.66522e+01  0.00000e+00  1.00581e+02 
 9.21216e-03  8.00291e-03  0.00000e+00  3.47944e+00  3.97745e-04  3.60314e+02  3.60162e+02  7.15368e+00  7.20592e+00  7.40900e-01 -8.97256e+01  8.72396e+01  5.73188e+05 -6.44411e+05  2.49730e+03  0.00000e+00 -6.87256e+04 -4.72561e+03 -7.34512e+04  7.40912e-01  1.00000e+00  8.97284e+01  0.00000e+00  1.17902e+02 
 9.42012e-03  8.24144e-03  0.00000e+00  3.47944e+00  3.70276e-04  3.60325e+02  3.60165e+02  6.94443e+00  6.99046e+00  7.43259e-01 -1.11267e+02  9.37152e+01  6.79555e+05 -7.72428e+05  2.65005e+03  0.00000e+00 -9.02235e+04 -6.27525e+03 -9.64988e+04  7.43259e-01  1.00000e+00  1.11270e+02  0.00000e+00  1.41164e+02 
 9.62949e-03  8.47996e-03  0.00000e+00  3.47944e+00  3.40015e-04  3.60346e+02  3.60168e+02  6.70435e+00  6.74389e+00  7.46425e-01 -1.49638e+02  1.02061e+02  8.31262e+05 -9.58573e+05  2.86558e+03  0.00000e+00 -1.24445e+05 -9.15207e+03 -1.33597e+05  7.46423e-01  1.00000e+00  1.49641e+02  0.00000e+00  1.75074e+02 
 9.84019e-03  8.71849e-03  0.00000e+00  3.47944e+00  3.06256e-04  3.60386e+02  3.60173e+02  6.39732e+00  6.43124e+00  7.48881e-01 -2.26631e+02  1.13321e+02  1.06778e+06 -1.25390e+06  3.18557e+03  0.00000e+00 -1.82935e+05 -1.53396e+04 -1.98275e+05  7.48867e-01  1.00000e+00  2.26635e+02  0.00000e+00  2.26644e+02 
 1.00521e-02  8.95702e-03  0.00000e+00  3.47944e+00  2.66535e-04  3.60470e+02  3.60182e+02  6.05355e+00  6.08059e+00  7.53816e-01 -4.12332e+02  1.30228e+02  1.49131e+06 -1.76059e+06  3.77724e+03  0.00000e+00 -2.65501e+05 -3.18686e+04 -2.97369e+05  7.53786e-01  1.00000e+00  4.12337e+02  0.00000e+00  3.26609e+02 
 1.02653e-02  9.19555e-03  0.00000e+00  3.47944e+00  2.21269e-04  3.60689e+02  3.60202e+02  5.42852e+00  5.45276e+00  7.56426e-01 -1.00469e+03  1.56919e+02  2.37613e+06 -2.74245e+06  4.69524e+03  0.00000e+00 -3.61628e+05 -9.32518e+04 -4.54880e+05  7.56387e-01  1.00000e+00  1.00470e+03  0.00000e+00  5.36119e+02 
 1.04795e-02  9.43408e-03  0.00000e+00  3.47944e+00  1.70468e-04  3.61547e+02  3.60258e+02  4.61078e+00  4.63075e+00  7.65209e-01 -9.13562e+03  2.03856e+02  4.93298e+06 -3.81936e+06  9.55166e+03  8.51797e+05  1.97497e+06 -1.96513e+06  9.84821e+03  7.65189e-01  1.00000e+00  9.13562e+03  4.93525e+03  1.43037e+03 
