# Code_Saturne plot output (1D profile)
#
# Iteration output: 4527
# Time output:      2.30007e+01
#
#COLUMN_TITLES: Distance | X | Y | Z | diameter_Field2 | temp_Field1 | temp_Field2 | Velocity_Field1[Z] | Velocity_Field2[Z] | vol_f_Field2 | mass_trans_Field1 | Xd_Field2 | BK | COAL | COMP | NUCL | W1 | MT | SMBR | ALPBB | CONDNUM | GAMA | GAMANUC | epsilon_Field1
 4.56474e-03  1.39645e-04  0.00000e+00  3.47944e+00  1.93215e-04  3.59956e+02  3.60056e+02  5.07912e+00  5.12247e+00  1.51943e-01  2.37594e+01  1.80324e+02  2.78976e+05 -1.01603e+06  1.24838e+03  0.00000e+00 -7.35803e+05  1.84403e+04 -7.17363e+05  1.51940e-01  1.00000e+00 -2.39409e+01  0.00000e+00  7.04625e-01 
 4.57812e-03  3.76525e-04  4.25872e-21  3.47944e+00  2.29077e-04  3.59957e+02  3.60056e+02  5.07794e+00  5.13097e+00  1.53185e-01  1.90318e+01  1.52094e+02  3.71092e+05 -7.64975e+05  1.05426e+03  0.00000e+00 -3.92829e+05  1.23561e+04 -3.80473e+05  1.53182e-01  1.00000e+00 -1.91782e+01  0.00000e+00  7.14239e-01 
 4.60371e-03  6.13858e-04  0.00000e+00  3.47944e+00  2.46726e-04  3.59958e+02  3.60056e+02  5.07603e+00  5.13376e+00  1.55388e-01  1.73548e+01  1.41215e+02  4.06723e+05 -6.86983e+05  9.79543e+02  0.00000e+00 -2.79281e+05  1.03133e+04 -2.68968e+05  1.55384e-01  1.00000e+00 -1.74898e+01  0.00000e+00  7.32746e-01 
 4.64138e-03  8.51483e-04  0.00000e+00  3.47944e+00  2.56377e-04  3.59960e+02  3.60056e+02  5.07333e+00  5.13343e+00  1.58514e-01  1.66031e+01  1.35899e+02  4.32136e+05 -6.62669e+05  9.42912e+02  0.00000e+00 -2.29591e+05  9.30893e+03 -2.20282e+05  1.58509e-01  1.00000e+00 -1.67345e+01  0.00000e+00  7.60529e-01 
 4.69084e-03  1.08931e-03  0.00000e+00  3.47944e+00  2.62499e-04  3.59962e+02  3.60056e+02  5.06968e+00  5.13103e+00  1.62659e-01  1.62015e+01  1.32729e+02  4.57569e+05 -6.61912e+05  9.20906e+02  0.00000e+00 -2.03422e+05  8.64729e+03 -1.94775e+05  1.62653e-01  1.00000e+00 -1.63327e+01  0.00000e+00  7.98069e-01 
 4.75174e-03  1.32727e-03  1.05001e-20  3.47944e+00  2.67021e-04  3.59965e+02  3.60055e+02  5.06498e+00  5.12702e+00  1.67761e-01  1.59326e+01  1.30481e+02  4.85813e+05 -6.74159e+05  9.05124e+02  0.00000e+00 -1.87441e+05  8.10742e+03 -1.79334e+05  1.67755e-01  1.00000e+00 -1.60655e+01  0.00000e+00  8.46234e-01 
 4.82366e-03  1.56534e-03  0.00000e+00  3.47944e+00  2.70935e-04  3.59969e+02  3.60055e+02  5.05916e+00  5.12159e+00  1.73846e-01  1.56958e+01  1.28596e+02  5.17526e+05 -6.94851e+05  8.91734e+02  0.00000e+00 -1.76434e+05  7.59833e+03 -1.68836e+05  1.73840e-01  1.00000e+00 -1.58316e+01  0.00000e+00  9.06003e-01 
 4.90611e-03  1.80349e-03  8.81027e-21  3.47944e+00  2.74775e-04  3.59973e+02  3.60055e+02  5.05208e+00  5.11478e+00  1.80850e-01  1.54285e+01  1.26799e+02  5.52650e+05 -7.21309e+05  8.78830e+02  0.00000e+00 -1.67780e+05  7.08204e+03 -1.60698e+05  1.80843e-01  1.00000e+00 -1.55680e+01  0.00000e+00  9.78638e-01 
 4.99859e-03  2.04170e-03  0.00000e+00  3.47944e+00  2.78870e-04  3.59978e+02  3.60055e+02  5.04362e+00  5.10653e+00  1.88743e-01  1.50915e+01  1.24937e+02  5.90612e+05 -7.51789e+05  8.65353e+02  0.00000e+00 -1.60312e+05  6.54323e+03 -1.53769e+05  1.88736e-01  1.00000e+00 -1.52350e+01  0.00000e+00  1.06552e+00 
 5.10055e-03  2.27996e-03  7.58893e-21  3.47944e+00  2.83419e-04  3.59984e+02  3.60055e+02  5.03361e+00  5.09676e+00  1.97434e-01  1.46555e+01  1.22932e+02  6.30593e+05 -7.84744e+05  8.50728e+02  0.00000e+00 -1.53301e+05  5.98039e+03 -1.47320e+05  1.97427e-01  1.00000e+00 -1.48034e+01  0.00000e+00  1.16825e+00 
 5.21143e-03  2.51826e-03  7.09702e-21  3.47944e+00  2.88557e-04  3.59989e+02  3.60055e+02  5.02189e+00  5.08532e+00  2.06840e-01  1.41025e+01  1.20743e+02  6.71517e+05 -8.18806e+05  8.34674e+02  0.00000e+00 -1.46454e+05  5.39904e+03 -1.41055e+05  2.06831e-01  1.00000e+00 -1.42547e+01  0.00000e+00  1.28850e+00 
 5.33068e-03  2.75659e-03  1.33300e-20  3.47944e+00  2.94345e-04  3.59995e+02  3.60055e+02  5.00827e+00  5.07204e+00  2.16802e-01  1.34220e+01  1.18369e+02  7.12266e+05 -8.52530e+05  8.17153e+02  0.00000e+00 -1.39447e+05  4.81004e+03 -1.34637e+05  2.16792e-01  1.00000e+00 -1.35782e+01  0.00000e+00  1.42805e+00 
 5.45775e-03  2.99495e-03  1.25651e-20  3.47944e+00  3.00814e-04  3.60001e+02  3.60055e+02  4.99257e+00  5.05677e+00  2.27284e-01  1.26180e+01  1.15823e+02  7.51533e+05 -8.85011e+05  7.98198e+02  0.00000e+00 -1.32681e+05  4.22495e+03 -1.28456e+05  2.27276e-01  1.00000e+00 -1.27781e+01  0.00000e+00  1.58855e+00 
 5.59212e-03  3.23333e-03  0.00000e+00  3.47944e+00  3.07916e-04  3.60008e+02  3.60055e+02  4.97460e+00  5.03929e+00  2.38074e-01  1.16971e+01  1.13152e+02  7.88587e+05 -9.15126e+05  7.78007e+02  0.00000e+00 -1.25761e+05  3.65744e+03 -1.22103e+05  2.38067e-01  1.00000e+00 -1.18605e+01  0.00000e+00  1.77231e+00 
 5.73326e-03  3.47172e-03  0.00000e+00  3.47944e+00  3.15562e-04  3.60014e+02  3.60055e+02  4.95425e+00  5.01949e+00  2.49050e-01  1.06764e+01  1.10410e+02  8.22452e+05 -9.42172e+05  7.57150e+02  0.00000e+00 -1.18964e+05  3.11874e+03 -1.15845e+05  2.49047e-01  1.00000e+00 -1.08428e+01  0.00000e+00  1.98038e+00 
 5.88069e-03  3.71014e-03 -5.35987e-21  3.47944e+00  3.23587e-04  3.60021e+02  3.60055e+02  4.93141e+00  4.99722e+00  2.60003e-01  9.57466e+00  1.07673e+02  8.53013e+05 -9.65751e+05  7.35978e+02  0.00000e+00 -1.12002e+05  2.61786e+03 -1.09384e+05  2.60003e-01  1.00000e+00 -9.74345e+00  0.00000e+00  2.21467e+00 
 6.03395e-03  3.94857e-03  5.10973e-21  3.47944e+00  3.31793e-04  3.60027e+02  3.60055e+02  4.90604e+00  4.97245e+00  2.70820e-01  8.41869e+00  1.05010e+02  8.80369e+05 -9.86071e+05  7.15190e+02  0.00000e+00 -1.04987e+05  2.16085e+03 -1.02826e+05  2.70820e-01  1.00000e+00 -8.58953e+00  0.00000e+00  2.47679e+00 
 6.19261e-03  4.18701e-03  0.00000e+00  3.47944e+00  3.39928e-04  3.60033e+02  3.60055e+02  4.87812e+00  4.94506e+00  2.81415e-01  7.22999e+00  1.02497e+02  9.05057e+05 -1.00387e+06  6.95214e+02  0.00000e+00 -9.81133e+04  1.74929e+03 -9.63640e+04  2.81412e-01  1.00000e+00 -7.40263e+00  0.00000e+00  2.76841e+00 
 6.35626e-03  4.42546e-03  0.00000e+00  3.47944e+00  3.47740e-04  3.60040e+02  3.60056e+02  4.84764e+00  4.91502e+00  2.91798e-01  6.03036e+00  1.00194e+02  9.27830e+05 -1.02035e+06  6.76497e+02  0.00000e+00 -9.18465e+04  1.38229e+03 -9.04642e+04  2.91792e-01  1.00000e+00 -6.20474e+00  0.00000e+00  3.09163e+00 
 6.52453e-03  4.66392e-03 -8.96437e-21  3.47944e+00  3.54936e-04  3.60046e+02  3.60056e+02  4.81463e+00  4.88231e+00  3.01889e-01  4.83189e+00  9.81633e+01  9.50122e+05 -1.03688e+06  6.59172e+02  0.00000e+00 -8.60976e+04  1.05655e+03 -8.50410e+04  3.01883e-01  1.00000e+00 -5.00813e+00  0.00000e+00  3.45032e+00 
 6.69707e-03  4.90238e-03  1.72236e-20  3.47944e+00  3.61271e-04  3.60052e+02  3.60056e+02  4.77905e+00  4.84687e+00  3.11660e-01  3.64223e+00  9.64423e+01  9.72917e+05 -1.05463e+06  6.43719e+02  0.00000e+00 -8.10655e+04  7.67067e+02 -8.02984e+04  3.11654e-01  1.00000e+00 -3.82062e+00  0.00000e+00  3.84633e+00 
 6.87356e-03  5.14086e-03  8.28595e-21  3.47944e+00  3.66489e-04  3.60058e+02  3.60056e+02  4.74085e+00  4.80855e+00  3.21027e-01  2.46264e+00  9.50696e+01  9.97876e+05 -1.07502e+06  6.30314e+02  0.00000e+00 -7.65147e+04  5.07928e+02 -7.60068e+04  3.21021e-01  1.00000e+00 -2.64357e+00  0.00000e+00  4.28490e+00 
 7.05370e-03  5.37934e-03 -1.59677e-20  3.47944e+00  3.70451e-04  3.60063e+02  3.60056e+02  4.69991e+00  4.76727e+00  3.30034e-01  1.29169e+00  9.40532e+01  1.02602e+06 -1.09934e+06  6.19045e+02  0.00000e+00 -7.26939e+04  2.72861e+02 -7.24211e+04  3.30028e-01  1.00000e+00 -1.47576e+00  0.00000e+00  4.77082e+00 
 7.23722e-03  5.61783e-03  0.00000e+00  3.47944e+00  3.72998e-04  3.60069e+02  3.60056e+02  4.65615e+00  4.72286e+00  3.38658e-01  1.23863e-01  9.34113e+01  1.05898e+06 -1.12909e+06  6.09859e+02  0.00000e+00 -6.94979e+04  5.57911e+01 -6.94421e+04  3.38652e-01  1.00000e+00 -3.11758e-01  0.00000e+00  5.31294e+00 
 7.42387e-03  5.85632e-03  0.00000e+00  3.47944e+00  3.74131e-04  3.60074e+02  3.60056e+02  4.60925e+00  4.67504e+00  3.46994e-01 -2.43271e+00  9.31289e+01  1.09743e+06 -1.16534e+06  6.02690e+02  0.00000e+00 -6.73015e+04 -3.49881e+02 -6.76514e+04  3.46987e-01  1.00000e+00  2.00930e+00  0.00000e+00  5.91862e+00 
 7.61342e-03  6.09482e-03  0.00000e+00  3.47944e+00  3.73746e-04  3.60079e+02  3.60056e+02  4.55910e+00  4.62366e+00  3.54966e-01 -5.12999e+00  9.32250e+01  1.14340e+06 -1.20964e+06  5.97428e+02  0.00000e+00 -6.56470e+04 -7.99954e+02 -6.64470e+04  3.54957e-01  1.00000e+00  4.69466e+00  0.00000e+00  6.60322e+00 
 7.80566e-03  6.33332e-03  0.00000e+00  3.47944e+00  3.71926e-04  3.60084e+02  3.60057e+02  4.50506e+00  4.56814e+00  3.62721e-01 -7.95520e+00  9.36818e+01  1.19745e+06 -1.26329e+06  5.93984e+02  0.00000e+00 -6.52426e+04 -1.25775e+03 -6.65004e+04  3.62712e-01  1.00000e+00  7.50582e+00  0.00000e+00  7.37806e+00 
 8.00039e-03  6.57182e-03  0.00000e+00  3.47944e+00  3.68543e-04  3.60089e+02  3.60057e+02  4.44724e+00  4.50852e+00  3.70148e-01 -1.09964e+01  9.45421e+01  1.26277e+06 -1.32881e+06  5.92319e+02  0.00000e+00 -6.54464e+04 -1.74508e+03 -6.71915e+04  3.70138e-01  1.00000e+00  1.05306e+01  0.00000e+00  8.27086e+00 
 8.19744e-03  6.81033e-03  1.31016e-20  3.47944e+00  3.63725e-04  3.60094e+02  3.60057e+02  4.38413e+00  4.44336e+00  3.77425e-01 -1.43815e+01  9.57951e+01  1.34031e+06 -1.40818e+06  5.92321e+02  0.00000e+00 -6.72785e+04 -2.28836e+03 -6.95669e+04  3.77415e-01  1.00000e+00  1.38963e+01  0.00000e+00  9.30139e+00 
 8.39664e-03  7.04884e-03  0.00000e+00  3.47944e+00  3.57277e-04  3.60099e+02  3.60057e+02  4.31678e+00  4.37366e+00  3.84447e-01 -1.82907e+01  9.75246e+01  1.43530e+06 -1.50613e+06  5.94262e+02  0.00000e+00 -7.02388e+04 -2.92677e+03 -7.31656e+04  3.84435e-01  1.00000e+00  1.77827e+01  0.00000e+00  1.05201e+01 
 8.59784e-03  7.28736e-03  0.00000e+00  3.47944e+00  3.49332e-04  3.60105e+02  3.60058e+02  4.24112e+00  4.29541e+00  3.91405e-01 -2.29965e+01  9.97431e+01  1.55034e+06 -1.62660e+06  5.97493e+02  0.00000e+00 -7.56585e+04 -3.71374e+03 -7.93723e+04  3.91392e-01  1.00000e+00  2.24617e+01  0.00000e+00  1.19695e+01 
 8.80092e-03  7.52587e-03  0.00000e+00  3.47944e+00  3.39550e-04  3.60111e+02  3.60058e+02  4.16166e+00  4.21309e+00  3.98135e-01 -2.89410e+01  1.02617e+02  1.69613e+06 -1.77932e+06  6.02898e+02  0.00000e+00 -8.25845e+04 -4.74484e+03 -8.73293e+04  3.98119e-01  1.00000e+00  2.83738e+01  0.00000e+00  1.37606e+01 
 9.00573e-03  7.76439e-03 -1.17014e-20  3.47944e+00  3.28087e-04  3.60119e+02  3.60058e+02  4.06662e+00  4.11491e+00  4.04929e-01 -3.68355e+01  1.06204e+02  1.87794e+06 -1.97338e+06  6.10285e+02  0.00000e+00 -9.48257e+04 -6.16504e+03 -1.00991e+05  4.04911e-01  1.00000e+00  3.62297e+01  0.00000e+00  1.59685e+01 
 9.21216e-03  8.00291e-03  0.00000e+00  3.47944e+00  3.14296e-04  3.60129e+02  3.60059e+02  3.97110e+00  4.01592e+00  4.11608e-01 -4.80073e+01  1.10864e+02  2.12255e+06 -2.23309e+06  6.20724e+02  0.00000e+00 -1.09929e+05 -8.27495e+03 -1.18204e+05  4.11584e-01  1.00000e+00  4.73526e+01  0.00000e+00  1.89018e+01 
 9.42012e-03  8.24144e-03  0.00000e+00  3.47944e+00  2.98340e-04  3.60143e+02  3.60059e+02  3.84019e+00  3.88073e+00  4.18438e-01 -6.48507e+01  1.16795e+02  2.44562e+06 -2.58412e+06  6.34519e+02  0.00000e+00 -1.37870e+05 -1.16144e+04 -1.49484e+05  4.18413e-01  1.00000e+00  6.41355e+01  0.00000e+00  2.27294e+01 
 9.62949e-03  8.47996e-03  0.00000e+00  3.47944e+00  2.79006e-04  3.60162e+02  3.60060e+02  3.71811e+00  3.75469e+00  4.25320e-01 -9.27832e+01  1.24889e+02  2.92426e+06 -3.10133e+06  6.54026e+02  0.00000e+00 -1.76419e+05 -1.75238e+04 -1.93942e+05  4.25294e-01  1.00000e+00  9.19862e+01  0.00000e+00  2.83831e+01 
 9.84019e-03  8.71849e-03  0.00000e+00  3.47944e+00  2.56190e-04  3.60194e+02  3.60060e+02  3.52507e+00  3.55733e+00  4.32391e-01 -1.44293e+02  1.36014e+02  3.64708e+06 -3.89586e+06  6.76681e+02  0.00000e+00 -2.48105e+05 -2.92604e+04 -2.77365e+05  4.32370e-01  1.00000e+00  1.43385e+02  0.00000e+00  3.68373e+01 
 1.00521e-02  8.95702e-03  0.00000e+00  3.47944e+00  2.27319e-04  3.60253e+02  3.60061e+02  3.34036e+00  3.36887e+00  4.39699e-01 -2.58935e+02  1.53290e+02  4.97428e+06 -5.32800e+06  7.15206e+02  0.00000e+00 -3.52997e+05 -5.83156e+04 -4.11312e+05  4.39686e-01  1.00000e+00  2.57853e+02  0.00000e+00  5.26388e+01 
 1.02653e-02  9.19555e-03  0.00000e+00  3.47944e+00  1.91960e-04  3.60388e+02  3.60062e+02  2.99429e+00  3.01816e+00  4.47578e-01 -5.89437e+02  1.81529e+02  7.73700e+06 -8.24059e+06  7.54608e+02  0.00000e+00 -5.02830e+05 -1.54723e+05 -6.57552e+05  4.47595e-01  1.00000e+00  5.88071e+02  0.00000e+00  8.70839e+01 
 1.04795e-02  9.43408e-03  0.00000e+00  3.47944e+00  1.49021e-04  3.60852e+02  3.60063e+02  2.50999e+00  2.52481e+00  4.58915e-01 -5.62402e+03  2.33840e+02  1.60745e+07 -1.54512e+07  8.40097e+02  2.35425e+06  2.97835e+06 -3.02903e+06 -5.06813e+04  4.58942e-01  1.00000e+00  5.62212e+03  3.44503e+03  2.19789e+02 
