# Code_Saturne plot output (1D profile)
#
# Iteration output: 11552
# Time output:      2.30006e+01
#
#COLUMN_TITLES: Distance | X | Y | Z | diameter_Field2 | temp_Field1 | temp_Field2 | Velocity_Field1[Z] | Velocity_Field2[Z] | vol_f_Field2 | mass_trans_Field1 | Xd_Field2 | BK | COAL | COMP | NUCL | W1 | MT | SMBR | ALPBB | CONDNUM | GAMA | GAMANUC | epsilon_Field1
 4.56474e-03  1.39645e-04  0.00000e+00  3.47944e+00  9.54266e-04  3.60325e+02  3.60124e+02  8.35654e+00  8.53537e+00  6.60665e-01 -3.34381e+01  3.63880e+01  6.86044e+04 -6.85993e+04  1.00518e+03  0.00000e+00  1.01025e+03 -1.14391e+03 -1.33658e+02  6.60678e-01  1.00000e+00  3.34331e+01  0.00000e+00  1.06194e+01 
 4.57812e-03  3.76525e-04  4.25872e-21  3.47944e+00  9.53833e-04  3.60325e+02  3.60124e+02  8.35551e+00  8.53473e+00  6.60701e-01 -3.34438e+01  3.64045e+01  6.87538e+04 -6.85046e+04  1.00565e+03  0.00000e+00  1.25490e+03 -1.14456e+03  1.10340e+02  6.60713e-01  1.00000e+00  3.34388e+01  0.00000e+00  1.06656e+01 
 4.60371e-03  6.13858e-04  0.00000e+00  3.47944e+00  9.51476e-04  3.60325e+02  3.60124e+02  8.35139e+00  8.53065e+00  6.60738e-01 -3.35025e+01  3.64947e+01  6.92290e+04 -6.88075e+04  1.00782e+03  0.00000e+00  1.42929e+03 -1.14935e+03  2.79943e+02  6.60750e-01  1.00000e+00  3.34975e+01  0.00000e+00  1.07561e+01 
 4.64138e-03  8.51483e-04  0.00000e+00  3.47944e+00  9.47353e-04  3.60324e+02  3.60124e+02  8.34556e+00  8.52443e+00  6.60800e-01 -3.36010e+01  3.66535e+01  7.00134e+04 -6.94724e+04  1.01170e+03  0.00000e+00  1.55265e+03 -1.15764e+03  3.95016e+02  6.60810e-01  1.00000e+00  3.35959e+01  0.00000e+00  1.08914e+01 
 4.69084e-03  1.08931e-03  0.00000e+00  3.47944e+00  9.41470e-04  3.60324e+02  3.60124e+02  8.33765e+00  8.51561e+00  6.60891e-01 -3.37386e+01  3.68826e+01  7.11177e+04 -7.05176e+04  1.01729e+03  0.00000e+00  1.61738e+03 -1.16948e+03  4.47899e+02  6.60901e-01  1.00000e+00  3.37334e+01  0.00000e+00  1.10729e+01 
 4.75174e-03  1.32727e-03  1.05001e-20  3.47944e+00  9.33844e-04  3.60323e+02  3.60124e+02  8.32788e+00  8.50451e+00  6.61030e-01 -3.39196e+01  3.71838e+01  7.25535e+04 -7.19698e+04  1.02359e+03  0.00000e+00  1.60729e+03 -1.18511e+03  4.22177e+02  6.61039e-01  1.00000e+00  3.39144e+01  0.00000e+00  1.13024e+01 
 4.82366e-03  1.56534e-03  0.00000e+00  3.47944e+00  9.24518e-04  3.60322e+02  3.60124e+02  8.31590e+00  8.49070e+00  6.61194e-01 -3.41420e+01  3.75589e+01  7.43447e+04 -7.38527e+04  1.03274e+03  0.00000e+00  1.52472e+03 -1.20462e+03  3.20103e+02  6.61201e-01  1.00000e+00  3.41367e+01  0.00000e+00  1.15823e+01 
 4.90611e-03  1.80349e-03  8.81027e-21  3.47944e+00  9.13596e-04  3.60320e+02  3.60124e+02  8.30173e+00  8.47430e+00  6.61432e-01 -3.44085e+01  3.80080e+01  7.64969e+04 -7.61870e+04  1.04356e+03  0.00000e+00  1.35340e+03 -1.22809e+03  1.25310e+02  6.61439e-01  1.00000e+00  3.44031e+01  0.00000e+00  1.19158e+01 
 4.99859e-03  2.04170e-03  0.00000e+00  3.47944e+00  9.01216e-04  3.60319e+02  3.60124e+02  8.28537e+00  8.45532e+00  6.61727e-01 -3.47170e+01  3.85302e+01  7.90281e+04 -7.89854e+04  1.05609e+03  0.00000e+00  1.09876e+03 -1.25557e+03 -1.56808e+02  6.61732e-01  1.00000e+00  3.47115e+01  0.00000e+00  1.23056e+01 
 5.10055e-03  2.27996e-03  7.58893e-21  3.47944e+00  8.87547e-04  3.60317e+02  3.60124e+02  8.26673e+00  8.43373e+00  6.62117e-01 -3.50647e+01  3.91237e+01  8.19517e+04 -8.22434e+04  1.07007e+03  0.00000e+00  7.78380e+02 -1.28692e+03 -5.08538e+02  6.62121e-01  1.00000e+00  3.50592e+01  0.00000e+00  1.27587e+01 
 5.21143e-03  2.51826e-03  7.09702e-21  3.47944e+00  8.72753e-04  3.60316e+02  3.60124e+02  8.24573e+00  8.40950e+00  6.62586e-01 -3.54499e+01  3.97870e+01  8.52841e+04 -8.59812e+04  1.08558e+03  0.00000e+00  3.88497e+02 -1.32218e+03 -9.33680e+02  6.62589e-01  1.00000e+00  3.54442e+01  0.00000e+00  1.32773e+01 
 5.33068e-03  2.75659e-03  1.33300e-20  3.47944e+00  8.56999e-04  3.60314e+02  3.60125e+02  8.22230e+00  8.38259e+00  6.63173e-01 -3.58690e+01  4.05186e+01  8.90437e+04 -9.01989e+04  1.10249e+03  0.00000e+00 -5.27223e+01 -1.36120e+03 -1.41393e+03  6.63174e-01  1.00000e+00  3.58632e+01  0.00000e+00  1.38701e+01 
 5.45775e-03  2.99495e-03  1.25651e-20  3.47944e+00  8.40420e-04  3.60312e+02  3.60125e+02  8.19625e+00  8.35285e+00  6.63810e-01 -3.63215e+01  4.13181e+01  9.32714e+04 -9.49204e+04  1.12082e+03  0.00000e+00 -5.28140e+02 -1.40422e+03 -1.93236e+03  6.63809e-01  1.00000e+00  3.63156e+01  0.00000e+00  1.45414e+01 
 5.59212e-03  3.23333e-03  0.00000e+00  3.47944e+00  8.23148e-04  3.60309e+02  3.60125e+02  8.16758e+00  8.32030e+00  6.64621e-01 -3.68051e+01  4.21852e+01  9.79729e+04 -1.00170e+05  1.14044e+03  0.00000e+00 -1.05679e+03 -1.45101e+03 -2.50780e+03  6.64618e-01  1.00000e+00  3.67990e+01  0.00000e+00  1.53022e+01 
 5.73326e-03  3.47172e-03  0.00000e+00  3.47944e+00  8.05280e-04  3.60307e+02  3.60125e+02  8.13596e+00  8.28465e+00  6.65482e-01 -3.73220e+01  4.31215e+01  1.03217e+05 -1.05990e+05  1.16142e+03  0.00000e+00 -1.61210e+03 -1.50209e+03 -3.11419e+03  6.65477e-01  1.00000e+00  3.73156e+01  0.00000e+00  1.61581e+01 
 5.88069e-03  3.71014e-03 -5.35987e-21  3.47944e+00  7.86919e-04  3.60305e+02  3.60126e+02  8.10149e+00  8.24602e+00  6.66559e-01 -3.78700e+01  4.41279e+01  1.09008e+05 -1.12422e+05  1.18367e+03  0.00000e+00 -2.22982e+03 -1.55720e+03 -3.78701e+03  6.66553e-01  1.00000e+00  3.78634e+01  0.00000e+00  1.71243e+01 
 6.03395e-03  3.94857e-03  5.10973e-21  3.47944e+00  7.68128e-04  3.60302e+02  3.60126e+02  8.06363e+00  8.20388e+00  6.67686e-01 -3.84552e+01  4.52077e+01  1.15445e+05 -1.19533e+05  1.20722e+03  0.00000e+00 -2.88132e+03 -1.61721e+03 -4.49853e+03  6.67680e-01  1.00000e+00  3.84484e+01  0.00000e+00  1.82079e+01 
 6.19261e-03  4.18701e-03  0.00000e+00  3.47944e+00  7.48988e-04  3.60299e+02  3.60126e+02  8.02270e+00  8.15855e+00  6.69023e-01 -3.90745e+01  4.63633e+01  1.22545e+05 -1.27386e+05  1.23232e+03  0.00000e+00 -3.60854e+03 -1.68189e+03 -5.29043e+03  6.69017e-01  1.00000e+00  3.90674e+01  0.00000e+00  1.94276e+01 
 6.35626e-03  4.42546e-03  0.00000e+00  3.47944e+00  7.29521e-04  3.60297e+02  3.60127e+02  7.97779e+00  8.10914e+00  6.70385e-01 -3.97405e+01  4.76008e+01  1.30446e+05 -1.36093e+05  1.25860e+03  0.00000e+00 -4.38815e+03 -1.75264e+03 -6.14080e+03  6.70378e-01  1.00000e+00  3.97333e+01  0.00000e+00  2.07939e+01 
 6.52453e-03  4.66392e-03 -8.96437e-21  3.47944e+00  7.09780e-04  3.60294e+02  3.60127e+02  7.92981e+00  8.05655e+00  6.71934e-01 -4.04517e+01  4.89251e+01  1.39192e+05 -1.45748e+05  1.28652e+03  0.00000e+00 -5.26913e+03 -1.82940e+03 -7.09852e+03  6.71929e-01  1.00000e+00  4.04441e+01  0.00000e+00  2.23344e+01 
 6.69707e-03  4.90238e-03  1.72236e-20  3.47944e+00  6.89772e-04  3.60291e+02  3.60127e+02  7.87692e+00  7.99900e+00  6.73398e-01 -4.12311e+01  5.03448e+01  1.48997e+05 -1.56513e+05  1.31567e+03  0.00000e+00 -6.20028e+03 -1.91457e+03 -8.11485e+03  6.73392e-01  1.00000e+00  4.12232e+01  0.00000e+00  2.40602e+01 
 6.87356e-03  5.14086e-03  8.28595e-21  3.47944e+00  6.69578e-04  3.60288e+02  3.60128e+02  7.82093e+00  7.93827e+00  6.75068e-01 -4.20769e+01  5.18636e+01  1.59874e+05 -1.68499e+05  1.34682e+03  0.00000e+00 -7.27887e+03 -2.00781e+03 -9.28668e+03  6.75060e-01  1.00000e+00  4.20686e+01  0.00000e+00  2.60098e+01 
 7.05370e-03  5.37934e-03 -1.59677e-20  3.47944e+00  6.49174e-04  3.60285e+02  3.60128e+02  7.75847e+00  7.87102e+00  6.76631e-01 -4.30259e+01  5.34944e+01  1.72119e+05 -1.81955e+05  1.37871e+03  0.00000e+00 -8.45741e+03 -2.11275e+03 -1.05702e+04  6.76621e-01  1.00000e+00  4.30173e+01  0.00000e+00  2.82001e+01 
 7.23722e-03  5.61783e-03  0.00000e+00  3.47944e+00  6.28622e-04  3.60283e+02  3.60129e+02  7.69366e+00  7.80137e+00  6.78564e-01 -4.40798e+01  5.52439e+01  1.85731e+05 -1.96997e+05  1.41207e+03  0.00000e+00 -9.85429e+03 -2.22892e+03 -1.20832e+04  6.78552e-01  1.00000e+00  4.40707e+01  0.00000e+00  3.07051e+01 
 7.42387e-03  5.85632e-03  0.00000e+00  3.47944e+00  6.07864e-04  3.60280e+02  3.60130e+02  7.61942e+00  7.72223e+00  6.80311e-01 -4.53077e+01  5.71312e+01  2.01173e+05 -2.14129e+05  1.44609e+03  0.00000e+00 -1.15102e+04 -2.36319e+03 -1.38734e+04  6.80296e-01  1.00000e+00  4.52982e+01  0.00000e+00  3.35206e+01 
 7.61342e-03  6.09482e-03  0.00000e+00  3.47944e+00  5.86935e-04  3.60278e+02  3.60130e+02  7.54525e+00  7.64313e+00  6.82440e-01 -4.67173e+01  5.91691e+01  2.18525e+05 -2.33480e+05  1.48366e+03  0.00000e+00 -1.34714e+04 -2.51575e+03 -1.59872e+04  6.82424e-01  1.00000e+00  4.67073e+01  0.00000e+00  3.67764e+01 
 7.80566e-03  6.33332e-03  0.00000e+00  3.47944e+00  5.65747e-04  3.60275e+02  3.60131e+02  7.45541e+00  7.54825e+00  6.84239e-01 -4.84462e+01  6.13860e+01  2.38503e+05 -2.55884e+05  1.52118e+03  0.00000e+00 -1.58593e+04 -2.69944e+03 -1.85587e+04  6.84228e-01  1.00000e+00  4.84357e+01  0.00000e+00  4.04592e+01 
 8.00039e-03  6.57182e-03  0.00000e+00  3.47944e+00  5.44285e-04  3.60274e+02  3.60132e+02  7.37211e+00  7.45994e+00  6.86656e-01 -5.05116e+01  6.38076e+01  2.61210e+05 -2.81590e+05  1.56448e+03  0.00000e+00 -1.88156e+04 -2.91524e+03 -2.17308e+04  6.86646e-01  1.00000e+00  5.05004e+01  0.00000e+00  4.48106e+01 
 8.19744e-03  6.81033e-03  1.31016e-20  3.47944e+00  5.22456e-04  3.60272e+02  3.60133e+02  7.26129e+00  7.34401e+00  6.88456e-01 -5.32072e+01  6.64747e+01  2.87963e+05 -3.12065e+05  1.60365e+03  0.00000e+00 -2.24984e+04 -3.19079e+03 -2.56891e+04  6.88450e-01  1.00000e+00  5.31953e+01  0.00000e+00  4.97729e+01 
 8.39664e-03  7.04884e-03  0.00000e+00  3.47944e+00  5.00122e-04  3.60272e+02  3.60134e+02  7.16960e+00  7.24719e+00  6.90940e-01 -5.66002e+01  6.94444e+01  3.19257e+05 -3.47757e+05  1.65739e+03  0.00000e+00 -2.68432e+04 -3.53313e+03 -3.03763e+04  6.90938e-01  1.00000e+00  5.65877e+01  0.00000e+00  5.58222e+01 
 8.59784e-03  7.28736e-03  0.00000e+00  3.47944e+00  4.77231e-04  3.60272e+02  3.60135e+02  7.02553e+00  7.09756e+00  6.92844e-01 -6.13194e+01  7.27769e+01  3.56976e+05 -3.91392e+05  1.70295e+03  0.00000e+00 -3.27126e+04 -4.00038e+03 -3.67130e+04  6.92841e-01  1.00000e+00  6.13059e+01  0.00000e+00  6.28863e+01 
 8.80092e-03  7.52587e-03  0.00000e+00  3.47944e+00  4.53399e-04  3.60274e+02  3.60136e+02  6.92583e+00  6.99260e+00  6.95475e-01 -6.76791e+01  7.66037e+01  4.03033e+05 -4.44625e+05  1.77195e+03  0.00000e+00 -3.98202e+04 -4.62989e+03 -4.44501e+04  6.95469e-01  1.00000e+00  6.76647e+01  0.00000e+00  7.18577e+01 
 9.00573e-03  7.76439e-03 -1.17014e-20  3.47944e+00  4.28709e-04  3.60278e+02  3.60137e+02  6.73321e+00  6.79392e+00  6.97542e-01 -7.71847e+01  8.10176e+01  4.60547e+05 -5.12698e+05  1.82059e+03  0.00000e+00 -5.03308e+04 -5.56789e+03 -5.58987e+04  6.97534e-01  1.00000e+00  7.71691e+01  0.00000e+00  8.27115e+01 
 9.21216e-03  8.00291e-03  0.00000e+00  3.47944e+00  4.02357e-04  3.60285e+02  3.60138e+02  6.62096e+00  6.67601e+00  7.00364e-01 -9.12625e+01  8.63253e+01  5.35492e+05 -6.01110e+05  1.91728e+03  0.00000e+00 -6.37003e+04 -6.98656e+03 -7.06869e+04  7.00353e-01  1.00000e+00  9.12455e+01  0.00000e+00  9.73545e+01 
 9.42012e-03  8.24144e-03  0.00000e+00  3.47944e+00  3.74549e-04  3.60299e+02  3.60140e+02  6.35178e+00  6.39975e+00  7.02674e-01 -1.14466e+02  9.27374e+01  6.35007e+05 -7.22857e+05  1.97318e+03  0.00000e+00 -8.58767e+04 -9.38294e+03 -9.52596e+04  7.02664e-01  1.00000e+00  1.14447e+02  0.00000e+00  1.16182e+02 
 9.62949e-03  8.47996e-03  0.00000e+00  3.47944e+00  3.43942e-04  3.60321e+02  3.60141e+02  6.20455e+00  6.24661e+00  7.05896e-01 -1.54324e+02  1.00992e+02  7.77605e+05 -8.98072e+05  2.10676e+03  0.00000e+00 -1.18360e+05 -1.37134e+04 -1.32073e+05  7.05891e-01  1.00000e+00  1.54303e+02  0.00000e+00  1.43929e+02 
 9.84019e-03  8.71849e-03  0.00000e+00  3.47944e+00  3.10209e-04  3.60363e+02  3.60143e+02  5.82999e+00  5.86504e+00  7.08474e-01 -2.33274e+02  1.11978e+02  9.96630e+05 -1.16971e+06  2.18269e+03  0.00000e+00 -1.70899e+05 -2.28994e+04 -1.93798e+05  7.08478e-01  1.00000e+00  2.33251e+02  0.00000e+00  1.85728e+02 
 1.00521e-02  8.95702e-03  0.00000e+00  3.47944e+00  2.71030e-04  3.60447e+02  3.60144e+02  5.59106e+00  5.62109e+00  7.12929e-01 -4.16367e+02  1.28169e+02  1.38452e+06 -1.62497e+06  2.38963e+03  0.00000e+00 -2.38066e+05 -4.64861e+04 -2.84552e+05  7.12962e-01  1.00000e+00  4.16339e+02  0.00000e+00  2.65244e+02 
 1.02653e-02  9.19555e-03  0.00000e+00  3.47944e+00  2.25604e-04  3.60659e+02  3.60147e+02  4.94846e+00  4.97298e+00  7.15616e-01 -9.83053e+02  1.53984e+02  2.20542e+06 -2.48971e+06  2.51867e+03  0.00000e+00 -2.81767e+05 -1.31374e+05 -4.13141e+05  7.15682e-01  1.00000e+00  9.83018e+02  0.00000e+00  4.39572e+02 
 1.04795e-02  9.43408e-03  0.00000e+00  3.47944e+00  1.76290e-04  3.61451e+02  3.60150e+02  4.20974e+00  4.22875e+00  7.23113e-01 -8.31199e+03  1.97068e+02  4.46995e+06 -3.44943e+06  2.79086e+03  1.21811e+06  2.24142e+06 -2.22542e+06  1.59948e+04  7.23163e-01  1.00000e+00  8.31194e+03  4.50328e+03  1.13167e+03 
