# Code_Saturne plot output (1D profile)
#
# Iteration output: 5133
# Time output:      2.30008e+01
#
#COLUMN_TITLES: Distance | X | Y | Z | diameter_Field2 | temp_Field1 | temp_Field2 | Velocity_Field1[Z] | Velocity_Field2[Z] | vol_f_Field2 | mass_trans_Field1 | Xd_Field2 | BK | COAL | COMP | NUCL | W1 | MT | SMBR | ALPBB | CONDNUM | GAMA | GAMANUC | epsilon_Field1
 4.56474e-03  1.39645e-04  0.00000e+00  3.47944e+00  6.02822e-05  3.60050e+02  3.60053e+02  5.10535e+00  5.11523e+00  1.10004e-01  1.34212e+01  5.78009e+02  9.65228e-07 -1.89481e+06  3.91652e+03  0.00000e+00 -1.89090e+06  4.04545e+04 -1.85044e+06  1.10002e-01  1.00000e+00 -1.27925e+01  0.00000e+00  3.91597e-01 
 4.57812e-03  3.76525e-04  4.25872e-21  3.47944e+00  9.00068e-05  3.60050e+02  3.60053e+02  5.10519e+00  5.12246e+00  1.11019e-01  7.78162e+00  3.87122e+02  5.69818e+00 -9.68548e+05  2.62537e+03  0.00000e+00 -9.65917e+05  1.55474e+04 -9.50369e+05  1.11015e-01  1.00000e+00 -7.40980e+00  0.00000e+00  3.97837e-01 
 4.60371e-03  6.13858e-04  0.00000e+00  3.47944e+00  1.17062e-04  3.60051e+02  3.60053e+02  5.10403e+00  5.12819e+00  1.13041e-01  5.48017e+00  2.97652e+02  1.28072e+03 -6.34190e+05  2.02073e+03  0.00000e+00 -6.30889e+05  8.25799e+03 -6.22631e+05  1.13036e-01  1.00000e+00 -5.21242e+00  0.00000e+00  4.09977e-01 
 4.64138e-03  8.51483e-04  0.00000e+00  3.47944e+00  1.40143e-04  3.60051e+02  3.60053e+02  5.10228e+00  5.13226e+00  1.16049e-01  4.29731e+00  2.48629e+02  1.38666e+04 -4.84293e+05  1.68927e+03  0.00000e+00 -4.68737e+05  5.25875e+03 -4.63478e+05  1.16044e-01  1.00000e+00 -4.07970e+00  0.00000e+00  4.28238e-01 
 4.69084e-03  1.08931e-03  0.00000e+00  3.47944e+00  1.59016e-04  3.60052e+02  3.60053e+02  5.09985e+00  5.13449e+00  1.20093e-01  3.58525e+00  2.19121e+02  4.75638e+04 -4.10237e+05  1.48953e+03  0.00000e+00 -3.61183e+05  3.72521e+03 -3.57458e+05  1.20088e-01  1.00000e+00 -3.39352e+00  0.00000e+00  4.52999e-01 
 4.75174e-03  1.32727e-03  1.05001e-20  3.47944e+00  1.73209e-04  3.60054e+02  3.60053e+02  5.09672e+00  5.13475e+00  1.25196e-01  3.11171e+00  2.01165e+02  9.61570e+04 -3.76865e+05  1.36771e+03  0.00000e+00 -2.79340e+05  2.83429e+03 -2.76506e+05  1.25190e-01  1.00000e+00 -2.93192e+00  0.00000e+00  4.84876e-01 
 4.82366e-03  1.56534e-03  0.00000e+00  3.47944e+00  1.82738e-04  3.60055e+02  3.60053e+02  5.09285e+00  5.13300e+00  1.31413e-01  2.76056e+00  1.90675e+02  1.49429e+05 -3.69518e+05  1.29611e+03  0.00000e+00 -2.18793e+05  2.25508e+03 -2.16538e+05  1.31407e-01  1.00000e+00 -2.58335e+00  0.00000e+00  5.24700e-01 
 4.90611e-03  1.80349e-03  8.81027e-21  3.47944e+00  1.88248e-04  3.60057e+02  3.60053e+02  5.08814e+00  5.12932e+00  1.38737e-01  2.45691e+00  1.85094e+02  2.03149e+05 -3.80891e+05  1.25748e+03  0.00000e+00 -1.76485e+05  1.82644e+03 -1.74659e+05  1.38730e-01  1.00000e+00 -2.27553e+00  0.00000e+00  5.73595e-01 
 4.99859e-03  2.04170e-03  0.00000e+00  3.47944e+00  1.90681e-04  3.60059e+02  3.60053e+02  5.08251e+00  5.12385e+00  1.47183e-01  2.14857e+00  1.82732e+02  2.57913e+05 -4.07339e+05  1.24034e+03  0.00000e+00 -1.48186e+05  1.46229e+03 -1.46723e+05  1.47175e-01  1.00000e+00 -1.95774e+00  0.00000e+00  6.32915e-01 
 5.10055e-03  2.27996e-03  7.58893e-21  3.47944e+00  1.90952e-04  3.60062e+02  3.60053e+02  5.07581e+00  5.11670e+00  1.56757e-01  1.79769e+00  1.82473e+02  3.16120e+05 -4.47200e+05  1.23710e+03  0.00000e+00 -1.29843e+05  1.11559e+03 -1.28727e+05  1.56747e-01  1.00000e+00 -1.59298e+00  0.00000e+00  7.04296e-01 
 5.21143e-03  2.51826e-03  7.09702e-21  3.47944e+00  1.89791e-04  3.60064e+02  3.60053e+02  5.06788e+00  5.10790e+00  1.67393e-01  1.37724e+00  1.83589e+02  3.80436e+05 -4.99842e+05  1.24278e+03  0.00000e+00 -1.18164e+05  7.61969e+02 -1.17402e+05  1.67384e-01  1.00000e+00 -1.15481e+00  0.00000e+00  7.89683e-01 
 5.33068e-03  2.75659e-03  1.33300e-20  3.47944e+00  1.87731e-04  3.60066e+02  3.60053e+02  5.05856e+00  5.09745e+00  1.79050e-01  8.71328e-01  1.85603e+02  4.53193e+05 -5.65422e+05  1.25411e+03  0.00000e+00 -1.10974e+05  3.91423e+02 -1.10583e+05  1.79042e-01  1.00000e+00 -6.27653e-01  0.00000e+00  8.91254e-01 
 5.45775e-03  2.99495e-03  1.25651e-20  3.47944e+00  1.85137e-04  3.60069e+02  3.60053e+02  5.04764e+00  5.08522e+00  1.91632e-01  5.23413e-01  1.88204e+02  5.36373e+05 -6.44389e+05  1.26890e+03  0.00000e+00 -1.06747e+05 -1.84229e+01 -1.06765e+05  1.91626e-01  1.00000e+00  3.11808e-02  0.00000e+00  1.01149e+00 
 5.59212e-03  3.23333e-03  0.00000e+00  3.47944e+00  1.82261e-04  3.60071e+02  3.60053e+02  5.03490e+00  5.07106e+00  2.05034e-01 -9.17515e-01  1.91174e+02  6.31494e+05 -7.37317e+05  1.28561e+03  0.00000e+00 -1.04537e+05 -8.56749e+02 -1.05394e+05  2.05029e-01  1.00000e+00  1.52736e+00  0.00000e+00  1.15303e+00 
 5.73326e-03  3.47172e-03  0.00000e+00  3.47944e+00  1.79267e-04  3.60073e+02  3.60053e+02  5.02000e+00  5.05489e+00  2.19067e-01 -2.50749e+00  1.94367e+02  7.39620e+05 -8.44565e+05  1.30416e+03  0.00000e+00 -1.03641e+05 -1.69613e+03 -1.05337e+05  2.19060e-01  1.00000e+00  3.17764e+00  0.00000e+00  1.31865e+00 
 5.88069e-03  3.71014e-03 -5.35987e-21  3.47944e+00  1.76263e-04  3.60075e+02  3.60053e+02  5.00830e+00  5.04345e+00  2.33604e-01 -4.19126e+00  1.97680e+02  8.63655e+05 -9.67228e+05  1.31553e+03  0.00000e+00 -1.02257e+05 -2.50824e+03 -1.04765e+05  2.33597e-01  1.00000e+00  4.92693e+00  0.00000e+00  1.51423e+00 
 6.03395e-03  3.94857e-03  5.10973e-21  3.47944e+00  1.73334e-04  3.60076e+02  3.60053e+02  4.98830e+00  5.02182e+00  2.48518e-01 -5.93895e+00  2.01020e+02  1.00378e+06 -1.10557e+06  1.33303e+03  0.00000e+00 -1.00452e+05 -3.28127e+03 -1.03734e+05  2.48511e-01  1.00000e+00  6.74293e+00  0.00000e+00  1.74313e+00 
 6.19261e-03  4.18701e-03  0.00000e+00  3.47944e+00  1.70544e-04  3.60077e+02  3.60053e+02  4.96558e+00  4.99750e+00  2.63628e-01 -7.67477e+00  2.04309e+02  1.15749e+06 -1.25859e+06  1.34941e+03  0.00000e+00 -9.97502e+04 -3.98606e+03 -1.03736e+05  2.63623e-01  1.00000e+00  8.54947e+00  0.00000e+00  2.00559e+00 
 6.35626e-03  4.42546e-03  0.00000e+00  3.47944e+00  1.67920e-04  3.60078e+02  3.60053e+02  4.93992e+00  4.97027e+00  2.78711e-01 -9.33585e+00  2.07502e+02  1.32505e+06 -1.42566e+06  1.36423e+03  0.00000e+00 -9.92551e+04 -4.60553e+03 -1.03861e+05  2.78707e-01  1.00000e+00  1.02826e+01  0.00000e+00  2.30593e+00 
 6.52453e-03  4.66392e-03 -8.96437e-21  3.47944e+00  1.65480e-04  3.60079e+02  3.60053e+02  4.91110e+00  4.93995e+00  2.93671e-01 -1.08693e+01  2.10562e+02  1.50587e+06 -1.60623e+06  1.37732e+03  0.00000e+00 -9.89760e+04 -5.12819e+03 -1.04104e+05  2.93665e-01  1.00000e+00  1.18887e+01  0.00000e+00  2.64804e+00 
 6.69707e-03  4.90238e-03  1.72236e-20  3.47944e+00  1.63224e-04  3.60079e+02  3.60053e+02  4.87899e+00  4.90640e+00  3.08355e-01 -1.22308e+01  2.13472e+02  1.69931e+06 -1.79934e+06  1.38857e+03  0.00000e+00 -9.86401e+04 -5.54858e+03 -1.04189e+05  3.08349e-01  1.00000e+00  1.33223e+01  0.00000e+00  3.03596e+00 
 6.87356e-03  5.14086e-03  8.28595e-21  3.47944e+00  1.61148e-04  3.60079e+02  3.60053e+02  4.84345e+00  4.86950e+00  3.22724e-01 -1.33918e+01  2.16224e+02  1.90427e+06 -2.00436e+06  1.39780e+03  0.00000e+00 -9.86851e+04 -5.86648e+03 -1.04552e+05  3.22720e-01  1.00000e+00  1.45544e+01  0.00000e+00  3.47366e+00 
 7.05370e-03  5.37934e-03 -1.59677e-20  3.47944e+00  1.59225e-04  3.60079e+02  3.60053e+02  4.80439e+00  4.82914e+00  3.36693e-01 -1.43369e+01  2.18835e+02  2.12068e+06 -2.22090e+06  1.40470e+03  0.00000e+00 -9.88118e+04 -6.08770e+03 -1.04899e+05  3.36695e-01  1.00000e+00  1.55693e+01  0.00000e+00  3.96712e+00 
 7.23722e-03  5.61783e-03  0.00000e+00  3.47944e+00  1.57432e-04  3.60079e+02  3.60053e+02  4.76168e+00  4.78519e+00  3.50228e-01 -1.50659e+01  2.21329e+02  2.34751e+06 -2.44859e+06  1.40955e+03  0.00000e+00 -9.96683e+04 -6.22199e+03 -1.05890e+05  3.50238e-01  1.00000e+00  1.63662e+01  0.00000e+00  4.52093e+00 
 7.42387e-03  5.85632e-03  0.00000e+00  3.47944e+00  1.55720e-04  3.60078e+02  3.60053e+02  4.71524e+00  4.73757e+00  3.63251e-01 -1.55877e+01  2.23762e+02  2.58614e+06 -2.68807e+06  1.41237e+03  0.00000e+00 -1.00521e+05 -6.28262e+03 -1.06804e+05  3.63267e-01  1.00000e+00  1.69541e+01  0.00000e+00  5.14419e+00 
 7.61342e-03  6.09482e-03  0.00000e+00  3.47944e+00  1.54048e-04  3.60078e+02  3.60054e+02  4.66488e+00  4.68609e+00  3.75692e-01 -1.59261e+01  2.26192e+02  2.83714e+06 -2.93996e+06  1.41386e+03  0.00000e+00 -1.01400e+05 -6.28631e+03 -1.07687e+05  3.75716e-01  1.00000e+00  1.73569e+01  0.00000e+00  5.84453e+00 
 7.80566e-03  6.33332e-03  0.00000e+00  3.47944e+00  1.52359e-04  3.60078e+02  3.60054e+02  4.61046e+00  4.63055e+00  3.87603e-01 -1.61103e+01  2.28700e+02  3.10349e+06 -3.20741e+06  1.41428e+03  0.00000e+00 -1.02511e+05 -6.24843e+03 -1.08760e+05  3.87633e-01  1.00000e+00  1.76043e+01  0.00000e+00  6.63638e+00 
 8.00039e-03  6.57182e-03  0.00000e+00  3.47944e+00  1.50601e-04  3.60077e+02  3.60054e+02  4.55155e+00  4.57057e+00  3.99034e-01 -1.61844e+01  2.31371e+02  3.38889e+06 -3.49460e+06  1.41402e+03  0.00000e+00 -1.04293e+05 -6.18825e+03 -1.10481e+05  3.99061e-01  1.00000e+00  1.77415e+01  0.00000e+00  7.53770e+00 
 8.19744e-03  6.81033e-03  1.31016e-20  3.47944e+00  1.48709e-04  3.60077e+02  3.60054e+02  4.48787e+00  4.50580e+00  4.10116e-01 -1.61949e+01  2.34316e+02  3.69894e+06 -3.80861e+06  1.41340e+03  0.00000e+00 -1.08260e+05 -6.12346e+03 -1.14384e+05  4.10129e-01  1.00000e+00  1.78157e+01  0.00000e+00  8.57473e+00 
 8.39664e-03  7.04884e-03  0.00000e+00  3.47944e+00  1.46609e-04  3.60076e+02  3.60054e+02  4.41885e+00  4.43571e+00  4.20805e-01 -1.62053e+01  2.37674e+02  4.04180e+06 -4.15752e+06  1.41291e+03  0.00000e+00 -1.14306e+05 -6.07963e+03 -1.20386e+05  4.20800e-01  1.00000e+00  1.78919e+01  0.00000e+00  9.78022e+00 
 8.59784e-03  7.28736e-03  0.00000e+00  3.47944e+00  1.44215e-04  3.60076e+02  3.60055e+02  4.34342e+00  4.35919e+00  4.31193e-01 -1.63083e+01  2.41620e+02  4.42929e+06 -4.55475e+06  1.41332e+03  0.00000e+00 -1.24052e+05 -6.08998e+03 -1.30142e+05  4.31176e-01  1.00000e+00  1.80642e+01  0.00000e+00  1.12052e+01 
 8.80092e-03  7.52587e-03  0.00000e+00  3.47944e+00  1.41421e-04  3.60075e+02  3.60055e+02  4.26145e+00  4.27612e+00  4.41265e-01 -1.66499e+01  2.46395e+02  4.88024e+06 -5.01923e+06  1.41499e+03  0.00000e+00 -1.37570e+05 -6.20853e+03 -1.43779e+05  4.41251e-01  1.00000e+00  1.84809e+01  0.00000e+00  1.29255e+01 
 9.00573e-03  7.76439e-03 -1.17014e-20  3.47944e+00  1.38109e-04  3.60075e+02  3.60055e+02  4.16903e+00  4.18253e+00  4.51188e-01 -1.75213e+01  2.52306e+02  5.42033e+06 -5.58058e+06  1.41917e+03  0.00000e+00 -1.58832e+05 -6.53874e+03 -1.65371e+05  4.51190e-01  1.00000e+00  1.94360e+01  0.00000e+00  1.50514e+01 
 9.21216e-03  8.00291e-03  0.00000e+00  3.47944e+00  1.34093e-04  3.60075e+02  3.60056e+02  4.06910e+00  4.08140e+00  4.60981e-01 -1.94472e+01  2.59864e+02  6.09773e+06 -6.28797e+06  1.42687e+03  0.00000e+00 -1.88817e+05 -7.27723e+03 -1.96094e+05  4.61000e-01  1.00000e+00  2.14587e+01  0.00000e+00  1.77823e+01 
 9.42012e-03  8.24144e-03  0.00000e+00  3.47944e+00  1.29200e-04  3.60076e+02  3.60056e+02  3.94857e+00  3.95958e+00  4.70933e-01 -2.37451e+01  2.69710e+02  6.97614e+06 -7.21725e+06  1.43826e+03  0.00000e+00 -2.39667e+05 -8.91390e+03 -2.48581e+05  4.70948e-01  1.00000e+00  2.58716e+01  0.00000e+00  2.14077e+01 
 9.62949e-03  8.47996e-03  0.00000e+00  3.47944e+00  1.23043e-04  3.60078e+02  3.60057e+02  3.81676e+00  3.82608e+00  4.80985e-01 -3.34999e+01  2.83206e+02  8.20480e+06 -8.52398e+06  1.46094e+03  0.00000e+00 -3.17719e+05 -1.26711e+04 -3.30390e+05  4.80991e-01  1.00000e+00  3.57702e+01  0.00000e+00  2.65546e+01 
 9.84019e-03  8.71849e-03  0.00000e+00  3.47944e+00  1.15307e-04  3.60084e+02  3.60057e+02  3.64024e+00  3.64817e+00  4.91400e-01 -5.83215e+01  3.02211e+02  1.00203e+07 -1.04784e+07  1.48733e+03  0.00000e+00 -4.56535e+05 -2.24869e+04 -4.79021e+05  4.91405e-01  1.00000e+00  6.07761e+01  0.00000e+00  3.42862e+01 
 1.00521e-02  8.95702e-03  0.00000e+00  3.47944e+00  1.05077e-04  3.60098e+02  3.60058e+02  3.45028e+00  3.45690e+00  5.02241e-01 -1.33624e+02  3.31636e+02  1.32057e+07 -1.38586e+07  1.53440e+03  0.00000e+00 -6.51344e+05 -5.41593e+04 -7.05503e+05  5.02253e-01  1.00000e+00  1.36340e+02  0.00000e+00  4.81837e+01 
 1.02653e-02  9.19555e-03  0.00000e+00  3.47944e+00  9.20808e-05  3.60149e+02  3.60059e+02  3.13060e+00  3.13556e+00  5.14296e-01 -4.47563e+02  3.78451e+02  1.96662e+07 -2.04643e+07  1.57772e+03  0.00000e+00 -7.96541e+05 -1.99495e+05 -9.96036e+05  5.14309e-01  1.00000e+00  4.50648e+02  0.00000e+00  7.85618e+01 
 1.04795e-02  9.43408e-03  0.00000e+00  3.47944e+00  7.72446e-05  3.60438e+02  3.60060e+02  2.66133e+00  2.66364e+00  5.31645e-01 -6.19958e+03  4.51148e+02  3.79216e+07 -3.60435e+07  1.65014e+03  3.09447e+06  4.97415e+06 -5.11506e+06 -1.40910e+05  5.31645e-01  1.00000e+00  6.20316e+03  3.44350e+03  1.93935e+02 
