# Code_Saturne plot output (1D profile)
#
# Iteration output: 14557
# Time output:      2.30001e+01
#
#COLUMN_TITLES: Distance | X | Y | Z | diameter_Field2 | temp_Field1 | temp_Field2 | Velocity_Field1[Z] | Velocity_Field2[Z] | vol_f_Field2 | mass_trans_Field1 | Xd_Field2 | BK | COAL | COMP | NUCL | W1 | MT | SMBR | ALPBB | CONDNUM | GAMA | GAMANUC | epsilon_Field1
 4.56474e-03  1.39645e-04  0.00000e+00  3.47944e+00  9.82510e-04  3.60399e+02  3.60157e+02  9.41249e+00  9.60319e+00  7.24539e-01 -3.95484e+01  3.52813e+01  4.86315e+04 -4.44239e+04  1.40633e+03  0.00000e+00  5.61392e+03 -3.57870e+02  5.25605e+03  7.24534e-01  1.00000e+00  3.95491e+01  0.00000e+00  1.54718e+01 
 4.57812e-03  3.76525e-04  4.25872e-21  3.47944e+00  9.81570e-04  3.60398e+02  3.60157e+02  9.41045e+00  9.60118e+00  7.24577e-01 -3.95631e+01  3.53151e+01  4.87682e+04 -4.44578e+04  1.40751e+03  0.00000e+00  5.71791e+03 -3.58327e+02  5.35958e+03  7.24572e-01  1.00000e+00  3.95637e+01  0.00000e+00  1.55333e+01 
 4.60371e-03  6.13858e-04  0.00000e+00  3.47944e+00  9.78774e-04  3.60398e+02  3.60157e+02  9.40623e+00  9.59673e+00  7.24592e-01 -3.96312e+01  3.54160e+01  4.91251e+04 -4.47473e+04  1.41114e+03  0.00000e+00  5.78890e+03 -3.59962e+02  5.42894e+03  7.24587e-01  1.00000e+00  3.96319e+01  0.00000e+00  1.56541e+01 
 4.64138e-03  8.51483e-04  0.00000e+00  3.47944e+00  9.74005e-04  3.60397e+02  3.60158e+02  9.39984e+00  9.58971e+00  7.24626e-01 -3.97543e+01  3.55894e+01  4.97103e+04 -4.53331e+04  1.41739e+03  0.00000e+00  5.79456e+03 -3.62832e+02  5.43173e+03  7.24620e-01  1.00000e+00  3.97549e+01  0.00000e+00  1.58351e+01 
 4.69084e-03  1.08931e-03  0.00000e+00  3.47944e+00  9.67232e-04  3.60397e+02  3.60158e+02  9.39126e+00  9.58004e+00  7.24678e-01 -3.99319e+01  3.58387e+01  5.05362e+04 -4.62424e+04  1.42636e+03  0.00000e+00  5.72018e+03 -3.66979e+02  5.35320e+03  7.24673e-01  1.00000e+00  3.99326e+01  0.00000e+00  1.60783e+01 
 4.75174e-03  1.32727e-03  1.05001e-20  3.47944e+00  9.58526e-04  3.60396e+02  3.60158e+02  9.38047e+00  9.56761e+00  7.24760e-01 -4.01578e+01  3.61642e+01  5.16096e+04 -4.74888e+04  1.43802e+03  0.00000e+00  5.55883e+03 -3.72365e+02  5.18647e+03  7.24755e-01  1.00000e+00  4.01585e+01  0.00000e+00  1.63858e+01 
 4.82366e-03  1.56534e-03  0.00000e+00  3.47944e+00  9.48022e-04  3.60394e+02  3.60158e+02  9.36741e+00  9.55238e+00  7.24884e-01 -4.04291e+01  3.65650e+01  5.29357e+04 -4.90784e+04  1.45230e+03  0.00000e+00  5.30962e+03 -3.78971e+02  4.93064e+03  7.24878e-01  1.00000e+00  4.04298e+01  0.00000e+00  1.67608e+01 
 4.90611e-03  1.80349e-03  8.81027e-21  3.47944e+00  9.35903e-04  3.60393e+02  3.60158e+02  9.35202e+00  9.53436e+00  7.25052e-01 -4.07419e+01  3.70386e+01  5.45199e+04 -5.10093e+04  1.46907e+03  0.00000e+00  4.97970e+03 -3.86760e+02  4.59294e+03  7.25047e-01  1.00000e+00  4.07426e+01  0.00000e+00  1.72074e+01 
 4.99859e-03  2.04170e-03  0.00000e+00  3.47944e+00  9.22362e-04  3.60391e+02  3.60158e+02  9.33422e+00  9.51353e+00  7.25283e-01 -4.10933e+01  3.75825e+01  5.63668e+04 -5.32809e+04  1.48821e+03  0.00000e+00  4.57411e+03 -3.95697e+02  4.17841e+03  7.25277e-01  1.00000e+00  4.10940e+01  0.00000e+00  1.77306e+01 
 5.10055e-03  2.27996e-03  7.58893e-21  3.47944e+00  9.07592e-04  3.60389e+02  3.60158e+02  9.31393e+00  9.48985e+00  7.25578e-01 -4.14785e+01  3.81943e+01  5.84856e+04 -5.58928e+04  1.50959e+03  0.00000e+00  4.10240e+03 -4.05742e+02  3.69665e+03  7.25572e-01  1.00000e+00  4.14792e+01  0.00000e+00  1.83361e+01 
 5.21143e-03  2.51826e-03  7.09702e-21  3.47944e+00  8.91761e-04  3.60387e+02  3.60159e+02  9.29104e+00  9.46330e+00  7.25957e-01 -4.18948e+01  3.88725e+01  6.08857e+04 -5.88525e+04  1.53312e+03  0.00000e+00  3.56636e+03 -4.16874e+02  3.14948e+03  7.25951e-01  1.00000e+00  4.18955e+01  0.00000e+00  1.90310e+01 
 5.33068e-03  2.75659e-03  1.33300e-20  3.47944e+00  8.75022e-04  3.60385e+02  3.60159e+02  9.26545e+00  9.43378e+00  7.26422e-01 -4.23389e+01  3.96163e+01  6.35834e+04 -6.21709e+04  1.55872e+03  0.00000e+00  2.97117e+03 -4.29079e+02  2.54209e+03  7.26416e-01  1.00000e+00  4.23396e+01  0.00000e+00  1.98230e+01 
 5.45775e-03  2.99495e-03  1.25651e-20  3.47944e+00  8.57505e-04  3.60383e+02  3.60159e+02  9.23703e+00  9.40122e+00  7.26991e-01 -4.28085e+01  4.04259e+01  6.65951e+04 -6.58684e+04  1.58635e+03  0.00000e+00  2.31302e+03 -4.42357e+02  1.87067e+03  7.26985e-01  1.00000e+00  4.28093e+01  0.00000e+00  2.07215e+01 
 5.59212e-03  3.23333e-03  0.00000e+00  3.47944e+00  8.39326e-04  3.60380e+02  3.60160e+02  9.20565e+00  9.36551e+00  7.27665e-01 -4.33016e+01  4.13017e+01  6.99451e+04 -6.99685e+04  1.61598e+03  0.00000e+00  1.59253e+03 -4.56723e+02  1.13581e+03  7.27659e-01  1.00000e+00  4.33024e+01  0.00000e+00  2.17369e+01 
 5.73326e-03  3.47172e-03  0.00000e+00  3.47944e+00  8.20589e-04  3.60377e+02  3.60160e+02  9.17116e+00  9.32651e+00  7.28459e-01 -4.38168e+01  4.22451e+01  7.36573e+04 -7.45029e+04  1.64763e+03  0.00000e+00  8.01984e+02 -4.72199e+02  3.29785e+02  7.28453e-01  1.00000e+00  4.38177e+01  0.00000e+00  2.28811e+01 
 5.88069e-03  3.71014e-03 -5.35987e-21  3.47944e+00  8.01385e-04  3.60375e+02  3.60161e+02  9.13340e+00  9.28409e+00  7.29372e-01 -4.43538e+01  4.32578e+01  7.77640e+04 -7.95075e+04  1.68133e+03  0.00000e+00 -6.20921e+01 -4.88830e+02 -5.50923e+02  7.29365e-01  1.00000e+00  4.43546e+01  0.00000e+00  2.41680e+01 
 6.03395e-03  3.94857e-03  5.10973e-21  3.47944e+00  7.81800e-04  3.60371e+02  3.60161e+02  9.09218e+00  9.23810e+00  7.30415e-01 -4.49110e+01  4.43418e+01  8.22978e+04 -8.50255e+04  1.71717e+03  0.00000e+00 -1.01057e+03 -5.06651e+02 -1.51722e+03  7.30409e-01  1.00000e+00  4.49119e+01  0.00000e+00  2.56135e+01 
 6.19261e-03  4.18701e-03  0.00000e+00  3.47944e+00  7.61904e-04  3.60368e+02  3.60162e+02  9.04732e+00  9.18834e+00  7.31578e-01 -4.54906e+01  4.55003e+01  8.73044e+04 -9.11075e+04  1.75532e+03  0.00000e+00 -2.04779e+03 -5.25759e+02 -2.57355e+03  7.31571e-01  1.00000e+00  4.54915e+01  0.00000e+00  2.72359e+01 
 6.35626e-03  4.42546e-03  0.00000e+00  3.47944e+00  7.41759e-04  3.60365e+02  3.60162e+02  8.99861e+00  9.13464e+00  7.32886e-01 -4.60925e+01  4.67365e+01  9.28241e+04 -9.78171e+04  1.79602e+03  0.00000e+00 -3.19697e+03 -5.46214e+02 -3.74318e+03  7.32878e-01  1.00000e+00  4.60934e+01  0.00000e+00  2.90565e+01 
 6.52453e-03  4.66392e-03 -8.96437e-21  3.47944e+00  7.21396e-04  3.60362e+02  3.60163e+02  8.94590e+00  9.07683e+00  7.34298e-01 -4.67224e+01  4.80564e+01  9.89322e+04 -1.05234e+05  1.83973e+03  0.00000e+00 -4.46180e+03 -5.68220e+02 -5.03002e+03  7.34290e-01  1.00000e+00  4.67234e+01  0.00000e+00  3.11010e+01 
 6.69707e-03  4.90238e-03  1.72236e-20  3.47944e+00  7.00835e-04  3.60358e+02  3.60164e+02  8.88888e+00  9.01464e+00  7.35777e-01 -4.73878e+01  4.94670e+01  1.05720e+05 -1.13458e+05  1.88706e+03  0.00000e+00 -5.85044e+03 -5.92036e+02 -6.44247e+03  7.35769e-01  1.00000e+00  4.73888e+01  0.00000e+00  3.33997e+01 
 6.87356e-03  5.14086e-03  8.28595e-21  3.47944e+00  6.80117e-04  3.60355e+02  3.60165e+02  8.82721e+00  8.94772e+00  7.37341e-01 -4.81007e+01  5.09748e+01  1.13267e+05 -1.22596e+05  1.93877e+03  0.00000e+00 -7.39028e+03 -6.17946e+02 -8.00823e+03  7.37332e-01  1.00000e+00  4.81017e+01  0.00000e+00  3.59882e+01 
 7.05370e-03  5.37934e-03 -1.59677e-20  3.47944e+00  6.59263e-04  3.60351e+02  3.60166e+02  8.76053e+00  8.87576e+00  7.38971e-01 -4.88729e+01  5.25883e+01  1.21687e+05 -1.32780e+05  1.99594e+03  0.00000e+00 -9.09778e+03 -6.46312e+02 -9.74409e+03  7.38962e-01  1.00000e+00  4.88740e+01  0.00000e+00  3.89097e+01 
 7.23722e-03  5.61783e-03  0.00000e+00  3.47944e+00  6.38286e-04  3.60348e+02  3.60167e+02  8.68844e+00  8.79835e+00  7.40678e-01 -4.97259e+01  5.43179e+01  1.31105e+05 -1.44175e+05  2.06001e+03  0.00000e+00 -1.10104e+04 -6.77655e+02 -1.16881e+04  7.40668e-01  1.00000e+00  4.97270e+01  0.00000e+00  4.22171e+01 
 7.42387e-03  5.85632e-03  0.00000e+00  3.47944e+00  6.17173e-04  3.60344e+02  3.60169e+02  8.61048e+00  8.71502e+00  7.42449e-01 -5.06874e+01  5.61778e+01  1.41693e+05 -1.56995e+05  2.13296e+03  0.00000e+00 -1.31695e+04 -7.12707e+02 -1.38822e+04  7.42438e-01  1.00000e+00  5.06886e+01  0.00000e+00  4.59762e+01 
 7.61342e-03  6.09482e-03  0.00000e+00  3.47944e+00  5.95902e-04  3.60341e+02  3.60171e+02  8.52610e+00  8.62522e+00  7.44291e-01 -5.18003e+01  5.81853e+01  1.53659e+05 -1.71518e+05  2.21735e+03  0.00000e+00 -1.56413e+04 -7.52516e+02 -1.63938e+04  7.44279e-01  1.00000e+00  5.18015e+01  0.00000e+00  5.02703e+01 
 7.80566e-03  6.33332e-03  0.00000e+00  3.47944e+00  5.74417e-04  3.60337e+02  3.60174e+02  8.43465e+00  8.52830e+00  7.46190e-01 -5.31255e+01  6.03644e+01  1.67291e+05 -1.88121e+05  2.31657e+03  0.00000e+00 -1.85127e+04 -7.98634e+02 -1.93114e+04  7.46177e-01  1.00000e+00  5.31268e+01  0.00000e+00  5.52061e+01 
 8.00039e-03  6.57182e-03  0.00000e+00  3.47944e+00  5.52655e-04  3.60334e+02  3.60178e+02  8.33538e+00  8.42349e+00  7.48156e-01 -5.47527e+01  6.27452e+01  1.82950e+05 -2.07306e+05  2.43496e+03  0.00000e+00 -2.19207e+04 -8.53311e+02 -2.27740e+04  7.48142e-01  1.00000e+00  5.47541e+01  0.00000e+00  6.09231e+01 
 8.19744e-03  6.81033e-03  1.31016e-20  3.47944e+00  5.30512e-04  3.60332e+02  3.60183e+02  8.22779e+00  8.31033e+00  7.50174e-01 -5.68191e+01  6.53695e+01  2.01161e+05 -2.29760e+05  2.57736e+03  0.00000e+00 -2.60213e+04 -9.20071e+02 -2.69414e+04  7.50157e-01  1.00000e+00  5.68205e+01  0.00000e+00  6.76151e+01 
 8.39664e-03  7.04884e-03  0.00000e+00  3.47944e+00  5.07865e-04  3.60330e+02  3.60189e+02  8.10970e+00  8.18656e+00  7.52284e-01 -5.95280e+01  6.82916e+01  2.22600e+05 -2.56433e+05  2.75297e+03  0.00000e+00 -3.10804e+04 -1.00420e+03 -3.20846e+04  7.52265e-01  1.00000e+00  5.95296e+01  0.00000e+00  7.55525e+01 
 8.59784e-03  7.28736e-03  0.00000e+00  3.47944e+00  4.84535e-04  3.60329e+02  3.60198e+02  7.98049e+00  8.05161e+00  7.54407e-01 -6.32175e+01  7.15900e+01  2.48370e+05 -2.88727e+05  2.96961e+03  0.00000e+00 -3.73879e+04 -1.11479e+03 -3.85027e+04  7.54390e-01  1.00000e+00  6.32192e+01  0.00000e+00  8.51204e+01 
 8.80092e-03  7.52587e-03  0.00000e+00  3.47944e+00  4.60324e-04  3.60329e+02  3.60210e+02  7.83641e+00  7.90163e+00  7.56666e-01 -6.84128e+01  7.53696e+01  2.79866e+05 -3.28701e+05  3.24333e+03  0.00000e+00 -4.55913e+04 -1.26630e+03 -4.68576e+04  7.56649e-01  1.00000e+00  6.84145e+01  0.00000e+00  9.68898e+01 
 9.00573e-03  7.76439e-03 -1.17014e-20  3.47944e+00  4.34915e-04  3.60330e+02  3.60227e+02  7.67491e+00  7.73407e+00  7.58865e-01 -7.60788e+01  7.97934e+01  3.19682e+05 -3.79771e+05  3.59073e+03  0.00000e+00 -5.64983e+04 -1.48652e+03 -5.79849e+04  7.58846e-01  1.00000e+00  7.60807e+01  0.00000e+00  1.11703e+02 
 9.21216e-03  8.00291e-03  0.00000e+00  3.47944e+00  4.08005e-04  3.60335e+02  3.60249e+02  7.49155e+00  7.54453e+00  7.61318e-01 -8.78679e+01  8.50857e+01  3.71192e+05 -4.47038e+05  4.04037e+03  0.00000e+00 -7.18065e+04 -1.82482e+03 -7.36313e+04  7.61305e-01  1.00000e+00  8.78699e+01  0.00000e+00  1.31003e+02 
 9.42012e-03  8.24144e-03  0.00000e+00  3.47944e+00  3.79010e-04  3.60344e+02  3.60281e+02  7.27713e+00  7.32363e+00  7.63569e-01 -1.07310e+02  9.16390e+01  4.41682e+05 -5.40649e+05  4.63424e+03  0.00000e+00 -9.43329e+04 -2.39313e+03 -9.67260e+04  7.63564e-01  1.00000e+00  1.07312e+02  0.00000e+00  1.57036e+02 
 9.62949e-03  8.47996e-03  0.00000e+00  3.47944e+00  3.47342e-04  3.60363e+02  3.60325e+02  7.02760e+00  7.06755e+00  7.66724e-01 -1.41743e+02  1.00062e+02  5.41717e+05 -6.76631e+05  5.45181e+03  0.00000e+00 -1.29462e+05 -3.43743e+03 -1.32899e+05  7.66717e-01  1.00000e+00  1.41745e+02  0.00000e+00  1.94875e+02 
 9.84019e-03  8.71849e-03  0.00000e+00  3.47944e+00  3.11796e-04  3.60398e+02  3.60390e+02  6.71418e+00  6.74821e+00  7.69091e-01 -2.11163e+02  1.11579e+02  6.99969e+05 -8.97583e+05  6.56316e+03  0.00000e+00 -1.91050e+05 -5.69225e+03 -1.96742e+05  7.69076e-01  1.00000e+00  2.11166e+02  0.00000e+00  2.52960e+02 
 1.00521e-02  8.95702e-03  0.00000e+00  3.47944e+00  2.70446e-04  3.60474e+02  3.60489e+02  6.35315e+00  6.38041e+00  7.74458e-01 -3.78054e+02  1.28831e+02  9.79898e+05 -1.27436e+06  8.21324e+03  0.00000e+00 -2.86249e+05 -1.16838e+04 -2.97932e+05  7.74521e-01  1.00000e+00  3.78057e+02  0.00000e+00  3.66299e+02 
 1.02653e-02  9.19555e-03  0.00000e+00  3.47944e+00  2.23426e-04  3.60675e+02  3.60659e+02  5.70682e+00  5.73216e+00  7.76895e-01 -9.15607e+02  1.56341e+02  1.57348e+06 -2.02147e+06  9.81978e+03  0.00000e+00 -4.38174e+05 -3.42244e+04 -4.72399e+05  7.77026e-01  1.00000e+00  9.15611e+02  0.00000e+00  6.03799e+02 
 1.04795e-02  9.43408e-03  0.00000e+00  3.47944e+00  1.70263e-04  3.61474e+02  3.61038e+02  4.85496e+00  4.87629e+00  7.86624e-01 -9.46136e+03  2.06305e+02  3.32273e+06 -2.85211e+06  2.59563e+04  9.76443e+05  1.47303e+06 -1.43796e+06  3.50639e+04  7.86578e-01  1.00000e+00  9.46136e+03  5.58626e+03  1.63637e+03 
