# Code_Saturne plot output (1D profile)
#
# Iteration output: 3027
# Time output:      2.30005e+01
#
#COLUMN_TITLES: Distance | X | Y | Z | diameter_Field2 | temp_Field1 | temp_Field2 | Velocity_Field1[Z] | Velocity_Field2[Z] | vol_f_Field2 | mass_trans_Field1 | Xd_Field2 | BK | COAL | COMP | NUCL | W1 | MT | SMBR | ALPBB | CONDNUM | GAMA | GAMANUC | epsilon_Field1
 4.56474e-03  1.39645e-04  0.00000e+00  3.47944e+00  1.26954e-04  3.59886e+02  3.60054e+02  4.95178e+00  4.97722e+00  1.11772e-01  4.85020e+01  2.74460e+02  1.46493e+04 -9.48945e+05  1.85298e+03  0.00000e+00 -9.32443e+05  4.35086e+04 -8.88934e+05  1.11773e-01  1.00000e+00 -4.85353e+01  0.00000e+00  5.55698e-01 
 4.57812e-03  3.76525e-04  4.25872e-21  3.47944e+00  1.57678e-04  3.59887e+02  3.60054e+02  4.95101e+00  4.98411e+00  1.12787e-01  3.64914e+01  2.20982e+02  7.30758e+04 -6.61821e+05  1.49351e+03  0.00000e+00 -5.87251e+05  2.61191e+04 -5.61132e+05  1.12789e-01  1.00000e+00 -3.65170e+01  0.00000e+00  5.63188e-01 
 4.60371e-03  6.13858e-04  0.00000e+00  3.47944e+00  1.79388e-04  3.59888e+02  3.60054e+02  4.94941e+00  4.98791e+00  1.14837e-01  3.10761e+01  1.94237e+02  1.38480e+05 -5.43518e+05  1.31381e+03  0.00000e+00 -4.03724e+05  1.92022e+04 -3.84522e+05  1.14838e-01  1.00000e+00 -3.10982e+01  0.00000e+00  5.77763e-01 
 4.64138e-03  8.51483e-04  0.00000e+00  3.47944e+00  1.93345e-04  3.59891e+02  3.60054e+02  4.94714e+00  4.98902e+00  1.17808e-01  2.85278e+01  1.80216e+02  1.89760e+05 -4.95436e+05  1.21938e+03  0.00000e+00 -3.04456e+05  1.59427e+04 -2.88514e+05  1.17809e-01  1.00000e+00 -2.85485e+01  0.00000e+00  5.99713e-01 
 4.69084e-03  1.08931e-03  0.00000e+00  3.47944e+00  2.02286e-04  3.59895e+02  3.60054e+02  4.94411e+00  4.98801e+00  1.21758e-01  2.72977e+01  1.72250e+02  2.31761e+05 -4.80552e+05  1.16544e+03  0.00000e+00 -2.47626e+05  1.41080e+04 -2.33518e+05  1.21760e-01  1.00000e+00 -2.73179e+01  0.00000e+00  6.29435e-01 
 4.75174e-03  1.32727e-03  1.05001e-20  3.47944e+00  2.08060e-04  3.59900e+02  3.60054e+02  4.94027e+00  4.98531e+00  1.26690e-01  2.67395e+01  1.67470e+02  2.70437e+05 -4.84856e+05  1.13270e+03  0.00000e+00 -2.13286e+05  1.29131e+04 -2.00373e+05  1.26693e-01  1.00000e+00 -2.67599e+01  0.00000e+00  6.67603e-01 
 4.82366e-03  1.56534e-03  0.00000e+00  3.47944e+00  2.11880e-04  3.59906e+02  3.60054e+02  4.93556e+00  4.98115e+00  1.32624e-01  2.65330e+01  1.64450e+02  3.09699e+05 -5.02202e+05  1.11161e+03  0.00000e+00 -1.91391e+05  1.20197e+04 -1.79372e+05  1.32626e-01  1.00000e+00 -2.65539e+01  0.00000e+00  7.15076e-01 
 4.90611e-03  1.80349e-03  8.81027e-21  3.47944e+00  2.14525e-04  3.59913e+02  3.60054e+02  4.92989e+00  4.97567e+00  1.39554e-01  2.64908e+01  1.62423e+02  3.51900e+05 -5.29573e+05  1.09700e+03  0.00000e+00 -1.76576e+05  1.12644e+04 -1.65311e+05  1.39557e-01  1.00000e+00 -2.65126e+01  0.00000e+00  7.72939e-01 
 4.99859e-03  2.04170e-03  0.00000e+00  3.47944e+00  2.16496e-04  3.59921e+02  3.60054e+02  4.92314e+00  4.96890e+00  1.47473e-01  2.64902e+01  1.60944e+02  3.98412e+05 -5.65387e+05  1.08589e+03  0.00000e+00 -1.65889e+05  1.05628e+04 -1.55326e+05  1.47475e-01  1.00000e+00 -2.65131e+01  0.00000e+00  8.42480e-01 
 5.10055e-03  2.27996e-03  7.58893e-21  3.47944e+00  2.18121e-04  3.59929e+02  3.60054e+02  4.91520e+00  4.96078e+00  1.56349e-01  2.64405e+01  1.59745e+02  4.49966e+05 -6.08673e+05  1.07643e+03  0.00000e+00 -1.57631e+05  9.87083e+03 -1.47760e+05  1.56351e-01  1.00000e+00 -2.64647e+01  0.00000e+00  9.25208e-01 
 5.21143e-03  2.51826e-03  7.09702e-21  3.47944e+00  2.19626e-04  3.59938e+02  3.60054e+02  4.90590e+00  4.95123e+00  1.66135e-01  2.62699e+01  1.58651e+02  5.06805e+05 -6.58681e+05  1.06742e+03  0.00000e+00 -1.50809e+05  9.16684e+03 -1.41642e+05  1.66136e-01  1.00000e+00 -2.62955e+01  0.00000e+00  1.02284e+00 
 5.33068e-03  2.75659e-03  1.33300e-20  3.47944e+00  2.21172e-04  3.59948e+02  3.60054e+02  4.89507e+00  4.94010e+00  1.76755e-01  2.59208e+01  1.57542e+02  5.68766e+05 -7.14644e+05  1.05803e+03  0.00000e+00 -1.44821e+05  8.44278e+03 -1.36378e+05  1.76755e-01  1.00000e+00 -2.59479e+01  0.00000e+00  1.13732e+00 
 5.45775e-03  2.99495e-03  1.25651e-20  3.47944e+00  2.22877e-04  3.59957e+02  3.60054e+02  4.88250e+00  4.92723e+00  1.88115e-01  2.53494e+01  1.56337e+02  6.35300e+05 -7.75674e+05  1.04769e+03  0.00000e+00 -1.39326e+05  7.69942e+03 -1.31627e+05  1.88115e-01  1.00000e+00 -2.53781e+01  0.00000e+00  1.27072e+00 
 5.59212e-03  3.23333e-03  0.00000e+00  3.47944e+00  2.24825e-04  3.59967e+02  3.60054e+02  4.86800e+00  4.91241e+00  2.00091e-01  2.45268e+01  1.54982e+02  7.05540e+05 -8.40678e+05  1.03600e+03  0.00000e+00 -1.34103e+05  6.94373e+03 -1.27159e+05  2.00091e-01  1.00000e+00 -2.45571e+01  0.00000e+00  1.42531e+00 
 5.73326e-03  3.47172e-03  0.00000e+00  3.47944e+00  2.27074e-04  3.59977e+02  3.60054e+02  4.85132e+00  4.89544e+00  2.12551e-01  2.34414e+01  1.53447e+02  7.78336e+05 -9.08430e+05  1.02273e+03  0.00000e+00 -1.29071e+05  6.18636e+03 -1.22884e+05  2.12550e-01  1.00000e+00 -2.34733e+01  0.00000e+00  1.60343e+00 
 5.88069e-03  3.71014e-03 -5.35987e-21  3.47944e+00  2.29651e-04  3.59987e+02  3.60054e+02  4.83227e+00  4.87610e+00  2.25333e-01  2.20986e+01  1.51726e+02  8.52413e+05 -9.77553e+05  1.00782e+03  0.00000e+00 -1.24132e+05  5.44027e+03 -1.18692e+05  2.25332e-01  1.00000e+00 -2.21321e+01  0.00000e+00  1.80749e+00 
 6.03395e-03  3.94857e-03  5.10973e-21  3.47944e+00  2.32557e-04  3.59996e+02  3.60054e+02  4.81063e+00  4.85420e+00  2.38294e-01  2.05215e+01  1.49830e+02  9.26416e+05 -1.04675e+06  9.91322e+02  0.00000e+00 -1.19341e+05  4.71840e+03 -1.14623e+05  2.38292e-01  1.00000e+00 -2.05563e+01  0.00000e+00  2.03987e+00 
 6.19261e-03  4.18701e-03  0.00000e+00  3.47944e+00  2.35762e-04  3.60005e+02  3.60054e+02  4.78624e+00  4.82957e+00  2.51261e-01  1.87452e+01  1.47793e+02  9.99195e+05 -1.11478e+06  9.73465e+02  0.00000e+00 -1.14610e+05  4.03295e+03 -1.10577e+05  2.51259e-01  1.00000e+00 -1.87815e+01  0.00000e+00  2.30303e+00 
 6.35626e-03  4.42546e-03  0.00000e+00  3.47944e+00  2.39212e-04  3.60014e+02  3.60054e+02  4.75898e+00  4.80206e+00  2.64119e-01  1.68167e+01  1.45662e+02  1.06974e+06 -1.18082e+06  9.54552e+02  0.00000e+00 -1.10124e+05  3.39324e+03 -1.06731e+05  2.64118e-01  1.00000e+00 -1.68541e+01  0.00000e+00  2.59931e+00 
 6.52453e-03  4.66392e-03 -8.96437e-21  3.47944e+00  2.42817e-04  3.60022e+02  3.60054e+02  4.72877e+00  4.77161e+00  2.76709e-01  1.47845e+01  1.43500e+02  1.13763e+06 -1.24430e+06  9.35000e+02  0.00000e+00 -1.05738e+05  2.80625e+03 -1.02932e+05  2.76709e-01  1.00000e+00 -1.48231e+01  0.00000e+00  2.93146e+00 
 6.69707e-03  4.90238e-03  1.72236e-20  3.47944e+00  2.46475e-04  3.60030e+02  3.60054e+02  4.69554e+00  4.73814e+00  2.88981e-01  1.26988e+01  1.41370e+02  1.20263e+06 -1.30534e+06  9.15246e+02  0.00000e+00 -1.01794e+05  2.27491e+03 -9.95195e+04  2.88980e-01  1.00000e+00 -1.27384e+01  0.00000e+00  3.30219e+00 
 6.87356e-03  5.14086e-03  8.28595e-21  3.47944e+00  2.50047e-04  3.60037e+02  3.60054e+02  4.65927e+00  4.70160e+00  3.00792e-01  1.06017e+01  1.39351e+02  1.26542e+06 -1.36431e+06  8.95790e+02  0.00000e+00 -9.79866e+04  1.79984e+03 -9.61868e+04  3.00791e-01  1.00000e+00 -1.06422e+01  0.00000e+00  3.71534e+00 
 7.05370e-03  5.37934e-03 -1.59677e-20  3.47944e+00  2.53406e-04  3.60044e+02  3.60054e+02  4.61993e+00  4.66195e+00  3.12167e-01  8.52940e+00  1.37504e+02  1.32665e+06 -1.42236e+06  8.77031e+02  0.00000e+00 -9.48328e+04  1.37819e+03 -9.34547e+04  3.12167e-01  1.00000e+00 -8.57074e+00  0.00000e+00  4.17499e+00 
 7.23722e-03  5.61783e-03  0.00000e+00  3.47944e+00  2.56387e-04  3.60050e+02  3.60055e+02  4.57749e+00  4.61913e+00  3.23014e-01  6.50650e+00  1.35906e+02  1.38807e+06 -1.48091e+06  8.59410e+02  0.00000e+00 -9.19843e+04  1.00585e+03 -9.09784e+04  3.23013e-01  1.00000e+00 -6.54869e+00  0.00000e+00  4.68788e+00 
 7.42387e-03  5.85632e-03  0.00000e+00  3.47944e+00  2.58865e-04  3.60056e+02  3.60055e+02  4.53178e+00  4.57295e+00  3.33411e-01  4.54787e+00  1.34606e+02  1.45097e+06 -1.54190e+06  8.43217e+02  0.00000e+00 -9.00853e+04  6.76619e+02 -8.94087e+04  3.33410e-01  1.00000e+00 -4.59092e+00  0.00000e+00  5.26079e+00 
 7.61342e-03  6.09482e-03  0.00000e+00  3.47944e+00  2.60666e-04  3.60061e+02  3.60055e+02  4.48272e+00  4.52331e+00  3.43278e-01  2.65919e+00  1.33676e+02  1.51817e+06 -1.60764e+06  8.28784e+02  0.00000e+00 -8.86359e+04  3.84272e+02 -8.82516e+04  3.43277e-01  1.00000e+00 -2.70316e+00  0.00000e+00  5.90611e+00 
 7.80566e-03  6.33332e-03  0.00000e+00  3.47944e+00  2.61702e-04  3.60066e+02  3.60055e+02  4.42987e+00  4.46976e+00  3.52758e-01  8.37008e-01  1.33147e+02  1.59127e+06 -1.68067e+06  8.16234e+02  0.00000e+00 -8.85870e+04  1.21531e+02 -8.84654e+04  3.52757e-01  1.00000e+00 -8.82005e-01  0.00000e+00  6.63518e+00 
 8.00039e-03  6.57182e-03  0.00000e+00  3.47944e+00  2.61800e-04  3.60071e+02  3.60055e+02  4.37317e+00  4.41219e+00  3.61748e-01 -2.11467e+00  1.33098e+02  1.67449e+06 -1.76440e+06  8.05819e+02  0.00000e+00 -8.91043e+04 -2.72078e+02 -8.93764e+04  3.61747e-01  1.00000e+00  2.02567e+00  0.00000e+00  7.47131e+00 
 8.19744e-03  6.81033e-03  1.31016e-20  3.47944e+00  2.60923e-04  3.60075e+02  3.60055e+02  4.31156e+00  4.34955e+00  3.70458e-01 -5.98249e+00  1.33547e+02  1.76962e+06 -1.86216e+06  7.97521e+02  0.00000e+00 -9.17431e+04 -7.75302e+02 -9.25184e+04  3.70456e-01  1.00000e+00  5.89138e+00  0.00000e+00  8.43345e+00 
 8.39664e-03  7.04884e-03  0.00000e+00  3.47944e+00  2.58857e-04  3.60079e+02  3.60056e+02  4.24547e+00  4.28225e+00  3.78735e-01 -9.98697e+00  1.34613e+02  1.88384e+06 -1.97988e+06  7.91669e+02  0.00000e+00 -9.52486e+04 -1.28368e+03 -9.65322e+04  3.78734e-01  1.00000e+00  9.89339e+00  0.00000e+00  9.56819e+00 
 8.59784e-03  7.28736e-03  0.00000e+00  3.47944e+00  2.55595e-04  3.60083e+02  3.60056e+02  4.17201e+00  4.20737e+00  3.86859e-01 -1.43871e+01  1.36332e+02  2.01996e+06 -2.12316e+06  7.88191e+02  0.00000e+00 -1.02411e+05 -1.83846e+03 -1.04249e+05  3.86857e-01  1.00000e+00  1.42906e+01  0.00000e+00  1.09095e+01 
 8.80092e-03  7.52587e-03  0.00000e+00  3.47944e+00  2.50851e-04  3.60087e+02  3.60056e+02  4.09380e+00  4.12753e+00  3.94646e-01 -1.95776e+01  1.38911e+02  2.19164e+06 -2.30398e+06  7.87724e+02  0.00000e+00 -1.11554e+05 -2.50279e+03 -1.14057e+05  3.94644e-01  1.00000e+00  1.94777e+01  0.00000e+00  1.25594e+01 
 9.00573e-03  7.76439e-03 -1.17014e-20  3.47944e+00  2.44634e-04  3.60092e+02  3.60057e+02  4.00244e+00  4.03432e+00  4.02395e-01 -2.62272e+01  1.42442e+02  2.40562e+06 -2.53378e+06  7.89954e+02  0.00000e+00 -1.27370e+05 -3.37575e+03 -1.30746e+05  4.02392e-01  1.00000e+00  2.61232e+01  0.00000e+00  1.45903e+01 
 9.21216e-03  8.00291e-03  0.00000e+00  3.47944e+00  2.36500e-04  3.60098e+02  3.60057e+02  3.90758e+00  3.93738e+00  4.09962e-01 -3.55359e+01  1.47342e+02  2.69252e+06 -2.84147e+06  7.96552e+02  0.00000e+00 -1.48155e+05 -4.64809e+03 -1.52803e+05  4.09960e-01  1.00000e+00  3.54268e+01  0.00000e+00  1.72610e+01 
 9.42012e-03  8.24144e-03  0.00000e+00  3.47944e+00  2.26426e-04  3.60107e+02  3.60058e+02  3.78582e+00  3.81332e+00  4.17641e-01 -4.98677e+01  1.53899e+02  3.07438e+06 -3.25875e+06  8.06317e+02  0.00000e+00 -1.83566e+05 -6.69279e+03 -1.90259e+05  4.17637e-01  1.00000e+00  4.97524e+01  0.00000e+00  2.07758e+01 
 9.62949e-03  8.47996e-03  0.00000e+00  3.47944e+00  2.13628e-04  3.60120e+02  3.60058e+02  3.66396e+00  3.68897e+00  4.25366e-01 -7.44851e+01  1.63121e+02  3.63986e+06 -3.87301e+06  8.24199e+02  0.00000e+00 -2.32326e+05 -1.04102e+04 -2.42737e+05  4.25361e-01  1.00000e+00  7.43618e+01  0.00000e+00  2.59574e+01 
 9.84019e-03  8.71849e-03  0.00000e+00  3.47944e+00  1.97924e-04  3.60142e+02  3.60059e+02  3.48336e+00  3.50577e+00  4.33284e-01 -1.22472e+02  1.76065e+02  4.49382e+06 -4.81075e+06  8.45796e+02  0.00000e+00 -3.16081e+05 -1.81480e+04 -3.34229e+05  4.33276e-01  1.00000e+00  1.22339e+02  0.00000e+00  3.37579e+01 
 1.00521e-02  8.95702e-03  0.00000e+00  3.47944e+00  1.77855e-04  3.60187e+02  3.60059e+02  3.29838e+00  3.31828e+00  4.41401e-01 -2.35469e+02  1.95934e+02  6.03252e+06 -6.45596e+06  8.83927e+02  0.00000e+00 -4.22556e+05 -3.81333e+04 -4.60690e+05  4.41391e-01  1.00000e+00  2.35321e+02  0.00000e+00  4.82456e+01 
 1.02653e-02  9.19555e-03  0.00000e+00  3.47944e+00  1.53795e-04  3.60299e+02  3.60060e+02  2.96658e+00  2.98329e+00  4.50390e-01 -5.81049e+02  2.26590e+02  9.09371e+06 -9.57277e+06  9.13975e+02  0.00000e+00 -4.78147e+05 -1.06686e+05 -5.84833e+05  4.50377e-01  1.00000e+00  5.80882e+02  0.00000e+00  7.97501e+01 
 1.04795e-02  9.43408e-03  0.00000e+00  3.47944e+00  1.28567e-04  3.60726e+02  3.60061e+02  2.48891e+00  2.49941e+00  4.61395e-01 -5.62919e+03  2.71058e+02  1.71444e+07 -1.54847e+07  9.48958e+02  8.28850e+05  2.48948e+06 -2.53293e+06 -4.34497e+04  4.61391e-01  1.00000e+00  5.62900e+03  3.38495e+03  2.00625e+02 
