# Code_Saturne plot output (1D profile)
#
# Iteration output: 13287
# Time output:      2.30000e+01
#
#COLUMN_TITLES: Distance | X | Y | Z | diameter_Field2 | temp_Field1 | temp_Field2 | Velocity_Field1[Z] | Velocity_Field2[Z] | vol_f_Field2 | mass_trans_Field1 | Xd_Field2 | BK | COAL | COMP | NUCL | W1 | MT | SMBR | ALPBB | CONDNUM | GAMA | GAMANUC | epsilon_Field1
 4.56474e-03  1.39645e-04  0.00000e+00  3.47944e+00  5.37335e-04  3.60276e+02  3.60139e+02  8.89774e+00  8.99856e+00  6.83194e-01 -3.68329e+01  6.45830e+01  3.76073e+05 -4.03052e+05  1.95417e+03  0.00000e+00 -2.50252e+04 -1.09710e+03 -2.61224e+04  6.83185e-01  1.00000e+00  3.68356e+01  0.00000e+00  9.22446e+00 
 4.57812e-03  3.76525e-04  4.25872e-21  3.47944e+00  5.36396e-04  3.60276e+02  3.60139e+02  8.89687e+00  8.99787e+00  6.83350e-01 -3.68768e+01  6.46961e+01  3.77749e+05 -4.04816e+05  1.95304e+03  0.00000e+00 -2.51138e+04 -1.10008e+03 -2.62138e+04  6.83341e-01  1.00000e+00  3.68795e+01  0.00000e+00  9.27807e+00 
 4.60371e-03  6.13858e-04  0.00000e+00  3.47944e+00  5.34409e-04  3.60275e+02  3.60139e+02  8.89191e+00  8.99245e+00  6.83552e-01 -3.69452e+01  6.49365e+01  3.81332e+05 -4.08573e+05  1.95931e+03  0.00000e+00 -2.52811e+04 -1.10589e+03 -2.63870e+04  6.83544e-01  1.00000e+00  3.69479e+01  0.00000e+00  9.38343e+00 
 4.64138e-03  8.51483e-04  0.00000e+00  3.47944e+00  5.31454e-04  3.60275e+02  3.60139e+02  8.88487e+00  8.98467e+00  6.83839e-01 -3.70442e+01  6.52976e+01  3.86743e+05 -4.14255e+05  1.96875e+03  0.00000e+00 -2.55439e+04 -1.11455e+03 -2.66585e+04  6.83831e-01  1.00000e+00  3.70470e+01  0.00000e+00  9.54151e+00 
 4.69084e-03  1.08931e-03  0.00000e+00  3.47944e+00  5.27586e-04  3.60274e+02  3.60139e+02  8.87525e+00  8.97407e+00  6.84227e-01 -3.71729e+01  6.57763e+01  3.93981e+05 -4.21859e+05  1.98124e+03  0.00000e+00 -2.58977e+04 -1.12598e+03 -2.70237e+04  6.84220e-01  1.00000e+00  3.71757e+01  0.00000e+00  9.75432e+00 
 4.75174e-03  1.32727e-03  1.05001e-20  3.47944e+00  5.22873e-04  3.60274e+02  3.60139e+02  8.86334e+00  8.96095e+00  6.84714e-01 -3.73271e+01  6.63692e+01  4.03074e+05 -4.31385e+05  1.99671e+03  0.00000e+00 -2.63138e+04 -1.14004e+03 -2.74538e+04  6.84706e-01  1.00000e+00  3.73299e+01  0.00000e+00  1.00240e+01 
 4.82366e-03  1.56534e-03  0.00000e+00  3.47944e+00  5.17365e-04  3.60273e+02  3.60139e+02  8.84899e+00  8.94519e+00  6.85292e-01 -3.75050e+01  6.70759e+01  4.14095e+05 -4.42891e+05  2.01505e+03  0.00000e+00 -2.67804e+04 -1.15669e+03 -2.79371e+04  6.85285e-01  1.00000e+00  3.75079e+01  0.00000e+00  1.03535e+01 
 4.90611e-03  1.80349e-03  8.81027e-21  3.47944e+00  5.11127e-04  3.60272e+02  3.60139e+02  8.83223e+00  8.92682e+00  6.85979e-01 -3.77029e+01  6.78946e+01  4.27083e+05 -4.56444e+05  2.03626e+03  0.00000e+00 -2.73242e+04 -1.17581e+03 -2.85000e+04  6.85973e-01  1.00000e+00  3.77059e+01  0.00000e+00  1.07462e+01 
 4.99859e-03  2.04170e-03  0.00000e+00  3.47944e+00  5.04215e-04  3.60270e+02  3.60139e+02  8.81299e+00  8.90581e+00  6.86755e-01 -3.79185e+01  6.88254e+01  4.42159e+05 -4.72135e+05  2.06028e+03  0.00000e+00 -2.79161e+04 -1.19739e+03 -2.91135e+04  6.86749e-01  1.00000e+00  3.79214e+01  0.00000e+00  1.12061e+01 
 5.10055e-03  2.27996e-03  7.58893e-21  3.47944e+00  4.96703e-04  3.60269e+02  3.60139e+02  8.79120e+00  8.88208e+00  6.87636e-01 -3.81468e+01  6.98664e+01  4.59389e+05 -4.90051e+05  2.08698e+03  0.00000e+00 -2.85747e+04 -1.22126e+03 -2.97959e+04  6.87630e-01  1.00000e+00  3.81498e+01  0.00000e+00  1.17380e+01 
 5.21143e-03  2.51826e-03  7.09702e-21  3.47944e+00  4.88648e-04  3.60268e+02  3.60139e+02  8.76682e+00  8.85562e+00  6.88606e-01 -3.83857e+01  7.10183e+01  4.78914e+05 -5.10326e+05  2.11630e+03  0.00000e+00 -2.92958e+04 -1.24741e+03 -3.05432e+04  6.88599e-01  1.00000e+00  3.83888e+01  0.00000e+00  1.23471e+01 
 5.33068e-03  2.75659e-03  1.33300e-20  3.47944e+00  4.80132e-04  3.60266e+02  3.60139e+02  8.73976e+00  8.82635e+00  6.89687e-01 -3.86285e+01  7.22782e+01  5.00809e+05 -5.33058e+05  2.14810e+03  0.00000e+00 -3.01011e+04 -1.27557e+03 -3.13767e+04  6.89678e-01  1.00000e+00  3.86317e+01  0.00000e+00  1.30400e+01 
 5.45775e-03  2.99495e-03  1.25651e-20  3.47944e+00  4.71206e-04  3.60264e+02  3.60139e+02  8.70986e+00  8.79411e+00  6.90846e-01 -3.88738e+01  7.36477e+01  5.25270e+05 -5.58418e+05  2.18232e+03  0.00000e+00 -3.09659e+04 -1.30580e+03 -3.22717e+04  6.90836e-01  1.00000e+00  3.88770e+01  0.00000e+00  1.38230e+01 
 5.59212e-03  3.23333e-03  0.00000e+00  3.47944e+00  4.61958e-04  3.60263e+02  3.60139e+02  8.67711e+00  8.75894e+00  6.92124e-01 -3.91126e+01  7.51225e+01  5.52352e+05 -5.86509e+05  2.21878e+03  0.00000e+00 -3.19383e+04 -1.33766e+03 -3.32760e+04  6.92113e-01  1.00000e+00  3.91160e+01  0.00000e+00  1.47046e+01 
 5.73326e-03  3.47172e-03  0.00000e+00  3.47944e+00  4.52423e-04  3.60261e+02  3.60139e+02  8.64124e+00  8.72056e+00  6.93467e-01 -3.93455e+01  7.67061e+01  5.82336e+05 -6.17563e+05  2.25746e+03  0.00000e+00 -3.29699e+04 -1.37134e+03 -3.43412e+04  6.93455e-01  1.00000e+00  3.93490e+01  0.00000e+00  1.56926e+01 
 5.88069e-03  3.71014e-03 -5.35987e-21  3.47944e+00  4.42692e-04  3.60259e+02  3.60140e+02  8.60228e+00  8.67902e+00  6.94936e-01 -3.95613e+01  7.83927e+01  6.15244e+05 -6.51679e+05  2.29812e+03  0.00000e+00 -3.41367e+04 -1.40620e+03 -3.55429e+04  6.94923e-01  1.00000e+00  3.95649e+01  0.00000e+00  1.67982e+01 
 6.03395e-03  3.94857e-03  5.10973e-21  3.47944e+00  4.32776e-04  3.60257e+02  3.60140e+02  8.55988e+00  8.63398e+00  6.96458e-01 -3.97635e+01  8.01894e+01  6.51475e+05 -6.89195e+05  2.34075e+03  0.00000e+00 -3.53787e+04 -1.44263e+03 -3.68213e+04  6.96445e-01  1.00000e+00  3.97672e+01  0.00000e+00  1.80309e+01 
 6.19261e-03  4.18701e-03  0.00000e+00  3.47944e+00  4.22766e-04  3.60255e+02  3.60140e+02  8.51411e+00  8.58553e+00  6.98107e-01 -3.99387e+01  8.20886e+01  6.91023e+05 -7.30200e+05  2.38507e+03  0.00000e+00 -3.67919e+04 -1.47981e+03 -3.82717e+04  6.98094e-01  1.00000e+00  3.99426e+01  0.00000e+00  1.94050e+01 
 6.35626e-03  4.42546e-03  0.00000e+00  3.47944e+00  4.12652e-04  3.60253e+02  3.60141e+02  8.46403e+00  8.53268e+00  6.99804e-01 -4.00938e+01  8.41012e+01  7.34405e+05 -7.75167e+05  2.43192e+03  0.00000e+00 -3.83299e+04 -1.51829e+03 -3.98482e+04  6.99791e-01  1.00000e+00  4.00978e+01  0.00000e+00  2.09324e+01 
 6.52453e-03  4.66392e-03 -8.96437e-21  3.47944e+00  4.02511e-04  3.60251e+02  3.60141e+02  8.40964e+00  8.47547e+00  7.01585e-01 -4.02177e+01  8.62209e+01  7.81681e+05 -8.24246e+05  2.48050e+03  0.00000e+00 -4.00841e+04 -1.55741e+03 -4.16415e+04  7.01571e-01  1.00000e+00  4.02218e+01  0.00000e+00  2.26264e+01 
 6.69707e-03  4.90238e-03  1.72236e-20  3.47944e+00  3.92330e-04  3.60248e+02  3.60142e+02  8.35096e+00  8.41396e+00  7.03479e-01 -4.03140e+01  8.84592e+01  8.33185e+05 -8.78108e+05  2.52918e+03  0.00000e+00 -4.23937e+04 -1.59735e+03 -4.39910e+04  7.03465e-01  1.00000e+00  4.03182e+01  0.00000e+00  2.45036e+01 
 6.87356e-03  5.14086e-03  8.28595e-21  3.47944e+00  3.82159e-04  3.60246e+02  3.60142e+02  8.28843e+00  8.34859e+00  7.05411e-01 -4.03758e+01  9.08145e+01  8.89408e+05 -9.36950e+05  2.57898e+03  0.00000e+00 -4.49635e+04 -1.63789e+03 -4.66014e+04  7.05400e-01  1.00000e+00  4.03802e+01  0.00000e+00  2.65836e+01 
 7.05370e-03  5.37934e-03 -1.59677e-20  3.47944e+00  3.71978e-04  3.60244e+02  3.60143e+02  8.22140e+00  8.27873e+00  7.07449e-01 -4.04092e+01  9.33014e+01  9.50888e+05 -1.00158e+06  2.62978e+03  0.00000e+00 -4.80569e+04 -1.67929e+03 -4.97362e+04  7.07440e-01  1.00000e+00  4.04138e+01  0.00000e+00  2.89014e+01 
 7.23722e-03  5.61783e-03  0.00000e+00  3.47944e+00  3.61793e-04  3.60242e+02  3.60143e+02  8.15012e+00  8.20462e+00  7.09496e-01 -4.04209e+01  9.59291e+01  1.01853e+06 -1.07256e+06  2.68250e+03  0.00000e+00 -5.13540e+04 -1.72210e+03 -5.30761e+04  7.09490e-01  1.00000e+00  4.04257e+01  0.00000e+00  3.14865e+01 
 7.42387e-03  5.85632e-03  0.00000e+00  3.47944e+00  3.51591e-04  3.60240e+02  3.60144e+02  8.07349e+00  8.12518e+00  7.11654e-01 -4.04200e+01  9.87139e+01  1.09298e+06 -1.15094e+06  2.73697e+03  0.00000e+00 -5.52229e+04 -1.76667e+03 -5.69896e+04  7.11651e-01  1.00000e+00  4.04249e+01  0.00000e+00  3.43913e+01 
 7.61342e-03  6.09482e-03  0.00000e+00  3.47944e+00  3.41327e-04  3.60237e+02  3.60145e+02  7.99177e+00  8.04061e+00  7.13827e-01 -4.04270e+01  1.01684e+02  1.17591e+06 -1.23803e+06  2.79386e+03  0.00000e+00 -5.93259e+04 -1.81461e+03 -6.11405e+04  7.13824e-01  1.00000e+00  4.04322e+01  0.00000e+00  3.76724e+01 
 7.80566e-03  6.33332e-03  0.00000e+00  3.47944e+00  3.30972e-04  3.60235e+02  3.60145e+02  7.90362e+00  7.94965e+00  7.16079e-01 -4.04675e+01  1.04867e+02  1.26871e+06 -1.33544e+06  2.85287e+03  0.00000e+00 -6.38790e+04 -1.86740e+03 -6.57464e+04  7.16078e-01  1.00000e+00  4.04729e+01  0.00000e+00  4.14128e+01 
 8.00039e-03  6.57182e-03  0.00000e+00  3.47944e+00  3.20460e-04  3.60233e+02  3.60146e+02  7.80895e+00  7.85211e+00  7.18408e-01 -4.05808e+01  1.08309e+02  1.37360e+06 -1.44567e+06  2.91551e+03  0.00000e+00 -6.91517e+04 -1.92783e+03 -7.10796e+04  7.18407e-01  1.00000e+00  4.05864e+01  0.00000e+00  4.57092e+01 
 8.19744e-03  6.81033e-03  1.31016e-20  3.47944e+00  3.09719e-04  3.60232e+02  3.60147e+02  7.70639e+00  7.74672e+00  7.20801e-01 -4.08341e+01  1.12067e+02  1.49374e+06 -1.57187e+06  2.98250e+03  0.00000e+00 -7.51485e+04 -2.00050e+03 -7.71490e+04  7.20801e-01  1.00000e+00  4.08400e+01  0.00000e+00  5.07047e+01 
 8.39664e-03  7.04884e-03  0.00000e+00  3.47944e+00  2.98661e-04  3.60230e+02  3.60148e+02  7.59523e+00  7.63261e+00  7.23298e-01 -4.13245e+01  1.16218e+02  1.63312e+06 -1.71864e+06  3.05665e+03  0.00000e+00 -8.24668e+04 -2.09228e+03 -8.45591e+04  7.23300e-01  1.00000e+00  4.13307e+01  0.00000e+00  5.65886e+01 
 8.59784e-03  7.28736e-03  0.00000e+00  3.47944e+00  2.87150e-04  3.60228e+02  3.60149e+02  7.47367e+00  7.50815e+00  7.25849e-01 -4.22325e+01  1.20879e+02  1.79831e+06 -1.89278e+06  3.14137e+03  0.00000e+00 -9.13206e+04 -2.21618e+03 -9.35368e+04  7.25855e-01  1.00000e+00  4.22389e+01  0.00000e+00  6.36356e+01 
 8.80092e-03  7.52587e-03  0.00000e+00  3.47944e+00  2.75072e-04  3.60227e+02  3.60150e+02  7.34010e+00  7.37155e+00  7.28557e-01 -4.38411e+01  1.26190e+02  1.99750e+06 -2.10364e+06  3.24248e+03  0.00000e+00 -1.02895e+05 -2.39272e+03 -1.05287e+05  7.28568e-01  1.00000e+00  4.38479e+01  0.00000e+00  7.22559e+01 
 9.00573e-03  7.76439e-03 -1.17014e-20  3.47944e+00  2.62177e-04  3.60227e+02  3.60152e+02  7.19126e+00  7.21969e+00  7.31283e-01 -4.67278e+01  1.32401e+02  2.24617e+06 -2.36759e+06  3.36954e+03  0.00000e+00 -1.18044e+05 -2.66576e+03 -1.20710e+05  7.31300e-01  1.00000e+00  4.67350e+01  0.00000e+00  8.30542e+01 
 9.21216e-03  8.00291e-03  0.00000e+00  3.47944e+00  2.48301e-04  3.60227e+02  3.60154e+02  7.02421e+00  7.04947e+00  7.34306e-01 -5.19360e+01  1.39804e+02  2.56419e+06 -2.70720e+06  3.53784e+03  0.00000e+00 -1.39471e+05 -3.11563e+03 -1.42586e+05  7.34321e-01  1.00000e+00  5.19437e+01  0.00000e+00  9.70901e+01 
 9.42012e-03  8.24144e-03  0.00000e+00  3.47944e+00  2.32991e-04  3.60230e+02  3.60157e+02  6.82780e+00  6.84968e+00  7.37342e-01 -6.19102e+01  1.48999e+02  2.99289e+06 -3.16972e+06  3.77654e+03  0.00000e+00 -1.73048e+05 -3.94192e+03 -1.76990e+05  7.37339e-01  1.00000e+00  6.19185e+01  0.00000e+00  1.15901e+02 
 9.62949e-03  8.47996e-03  0.00000e+00  3.47944e+00  2.15902e-04  3.60235e+02  3.60162e+02  6.60423e+00  6.62256e+00  7.41189e-01 -8.21433e+01  1.60805e+02  3.59601e+06 -3.82999e+06  4.13016e+03  0.00000e+00 -2.29844e+05 -5.61508e+03 -2.35459e+05  7.41176e-01  1.00000e+00  8.21523e+01  0.00000e+00  1.43152e+02 
 9.84019e-03  8.71849e-03  0.00000e+00  3.47944e+00  1.96132e-04  3.60250e+02  3.60170e+02  6.31750e+00  6.33276e+00  7.44644e-01 -1.29212e+02  1.77037e+02  4.53341e+06 -4.87252e+06  4.68724e+03  0.00000e+00 -3.34418e+05 -9.67852e+03 -3.44096e+05  7.44650e-01  1.00000e+00  1.29222e+02  0.00000e+00  1.84564e+02 
 1.00521e-02  8.95702e-03  0.00000e+00  3.47944e+00  1.72287e-04  3.60286e+02  3.60184e+02  5.99782e+00  6.00937e+00  7.50941e-01 -2.61502e+02  2.01583e+02  6.19385e+06 -6.72721e+06  5.68000e+03  0.00000e+00 -5.27681e+05 -2.21197e+04 -5.49801e+05  7.50926e-01  1.00000e+00  2.61513e+02  0.00000e+00  2.63937e+02 
 1.02653e-02  9.19555e-03  0.00000e+00  3.47944e+00  1.43079e-04  3.60401e+02  3.60214e+02  5.42064e+00  5.43083e+00  7.54815e-01 -7.87761e+02  2.42846e+02  9.81204e+06 -1.06644e+07  7.21572e+03  0.00000e+00 -8.45129e+05 -7.98628e+04 -9.24992e+05  7.54799e-01  1.00000e+00  7.87774e+02  0.00000e+00  4.32262e+02 
 1.04795e-02  9.43408e-03  0.00000e+00  3.47944e+00  1.07559e-04  3.60997e+02  3.60291e+02  4.66427e+00  4.67164e+00  7.67723e-01 -9.47284e+03  3.23423e+02  2.09465e+07 -2.00854e+07  1.73254e+04  1.60210e+06  2.48055e+06 -2.59186e+06 -1.11303e+05  7.67738e-01  1.00000e+00  9.47285e+03  4.75219e+03  1.14968e+03 
