# Code_Saturne plot output (1D profile)
#
# Iteration output: 2303
# Time output:      2.30087e+01
#
#COLUMN_TITLES: Distance | X | Y | Z | diameter_Field2 | temp_Field1 | temp_Field2 | Velocity_Field1[Z] | Velocity_Field2[Z] | vol_f_Field2 | mass_trans_Field1 | Xd_Field2 | BK | COAL | COMP | NUCL | W1 | MT | SMBR | ALPBB | CONDNUM | GAMA | GAMANUC | epsilon_Field1
 4.56474e-03  1.39645e-04  0.00000e+00  3.47944e+00  1.93111e-04  3.59853e+02  3.60055e+02  4.85841e+00  4.89796e+00  1.28664e-01  3.99640e+01  1.80433e+02  1.77095e+05 -8.62137e+05  1.22691e+03  0.00000e+00 -6.83815e+05  2.85367e+04 -6.55279e+05  1.28659e-01  1.00000e+00 -3.99637e+01  0.00000e+00  8.73164e-01 
 4.57812e-03  3.76525e-04  4.25872e-21  3.47944e+00  2.28171e-04  3.59853e+02  3.60055e+02  4.85704e+00  4.90525e+00  1.29502e-01  3.21438e+01  1.52708e+02  2.14643e+05 -6.51299e+05  1.03982e+03  0.00000e+00 -4.35616e+05  1.92998e+04 -4.16316e+05  1.29497e-01  1.00000e+00 -3.21435e+01  0.00000e+00  8.83512e-01 
 4.60371e-03  6.13858e-04  0.00000e+00  3.47944e+00  2.50651e-04  3.59854e+02  3.60055e+02  4.85474e+00  4.90843e+00  1.31156e-01  2.86228e+01  1.39012e+02  2.28893e+05 -5.63367e+05  9.47277e+02  0.00000e+00 -3.33527e+05  1.54471e+04 -3.18080e+05  1.31151e-01  1.00000e+00 -2.86226e+01  0.00000e+00  9.03528e-01 
 4.64138e-03  8.51483e-04  0.00000e+00  3.47944e+00  2.67015e-04  3.59857e+02  3.60055e+02  4.85156e+00  4.90907e+00  1.33483e-01  2.66164e+01  1.30493e+02  2.37975e+05 -5.18065e+05  8.89456e+02  0.00000e+00 -2.79200e+05  1.32487e+04 -2.65952e+05  1.33479e-01  1.00000e+00 -2.66161e+01  0.00000e+00  9.33645e-01 
 4.69084e-03  1.08931e-03  0.00000e+00  3.47944e+00  2.81001e-04  3.59859e+02  3.60055e+02  4.84733e+00  4.90795e+00  1.36610e-01  2.52188e+01  1.23998e+02  2.45921e+05 -4.90605e+05  8.45131e+02  0.00000e+00 -2.43838e+05  1.16551e+04 -2.32183e+05  1.36607e-01  1.00000e+00 -2.52186e+01  0.00000e+00  9.74231e-01 
 4.75174e-03  1.32727e-03  1.05001e-20  3.47944e+00  2.94427e-04  3.59863e+02  3.60055e+02  4.84197e+00  4.90544e+00  1.40480e-01  2.40676e+01  1.18344e+02  2.53486e+05 -4.71461e+05  8.06350e+02  0.00000e+00 -2.17169e+05  1.03234e+04 -2.06845e+05  1.40477e-01  1.00000e+00 -2.40674e+01  0.00000e+00  1.02603e+00 
 4.82366e-03  1.56534e-03  0.00000e+00  3.47944e+00  3.08329e-04  3.59867e+02  3.60055e+02  4.83543e+00  4.90175e+00  1.45129e-01  2.30042e+01  1.13008e+02  2.60472e+05 -4.56404e+05  7.69610e+02  0.00000e+00 -1.95162e+05  9.12041e+03 -1.86042e+05  1.45127e-01  1.00000e+00 -2.30040e+01  0.00000e+00  1.08985e+00 
 4.90611e-03  1.80349e-03  8.81027e-21  3.47944e+00  3.23318e-04  3.59873e+02  3.60055e+02  4.82759e+00  4.89690e+00  1.50522e-01  2.19421e+01  1.07769e+02  2.66449e+05 -4.43080e+05  7.33429e+02  0.00000e+00 -1.75898e+05  7.99874e+03 -1.67899e+05  1.50521e-01  1.00000e+00 -2.19419e+01  0.00000e+00  1.16672e+00 
 4.99859e-03  2.04170e-03  0.00000e+00  3.47944e+00  3.39774e-04  3.59879e+02  3.60055e+02  4.81838e+00  4.89092e+00  1.56654e-01  2.08418e+01  1.02549e+02  2.70924e+05 -4.30232e+05  6.97292e+02  0.00000e+00 -1.58610e+05  6.94664e+03 -1.51663e+05  1.56653e-01  1.00000e+00 -2.08416e+01  0.00000e+00  1.25774e+00 
 5.10055e-03  2.27996e-03  7.58893e-21  3.47944e+00  3.57897e-04  3.59885e+02  3.60055e+02  4.80766e+00  4.88369e+00  1.63466e-01  1.96846e+01  9.73565e+01  2.73526e+05 -4.17080e+05  6.61236e+02  0.00000e+00 -1.42893e+05  5.96912e+03 -1.36924e+05  1.63466e-01  1.00000e+00 -1.96844e+01  0.00000e+00  1.36416e+00 
 5.21143e-03  2.51826e-03  7.09702e-21  3.47944e+00  3.77734e-04  3.59893e+02  3.60055e+02  4.79533e+00  4.87503e+00  1.70952e-01  1.84739e+01  9.22438e+01  2.74030e+05 -4.03383e+05  6.25692e+02  0.00000e+00 -1.28727e+05  5.07542e+03 -1.23652e+05  1.70950e-01  1.00000e+00 -1.84737e+01  0.00000e+00  1.48720e+00 
 5.33068e-03  2.75659e-03  1.33300e-20  3.47944e+00  3.99136e-04  3.59901e+02  3.60055e+02  4.78150e+00  4.86421e+00  1.78983e-01  1.71791e+01  8.72977e+01  2.72525e+05 -3.89020e+05  5.91128e+02  0.00000e+00 -1.15904e+05  4.26621e+03 -1.11637e+05  1.78981e-01  1.00000e+00 -1.71789e+01  0.00000e+00  1.62834e+00 
 5.45775e-03  2.99495e-03  1.25651e-20  3.47944e+00  4.21778e-04  3.59910e+02  3.60055e+02  4.76621e+00  4.84934e+00  1.87454e-01  1.57706e+01  8.26114e+01  2.69352e+05 -3.74215e+05  5.58145e+02  0.00000e+00 -1.04304e+05  3.53874e+03 -1.00766e+05  1.87450e-01  1.00000e+00 -1.57704e+01  0.00000e+00  1.78942e+00 
 5.59212e-03  3.23333e-03  0.00000e+00  3.47944e+00  4.45163e-04  3.59919e+02  3.60055e+02  4.74904e+00  4.83149e+00  1.96308e-01  1.43883e+01  7.82719e+01  2.65000e+05 -3.59464e+05  5.27208e+02  0.00000e+00 -9.39367e+04  2.92099e+03 -9.10157e+04  1.96304e-01  1.00000e+00 -1.43881e+01  0.00000e+00  1.97219e+00 
 5.73326e-03  3.47172e-03  0.00000e+00  3.47944e+00  4.68648e-04  3.59930e+02  3.60055e+02  4.72977e+00  4.81122e+00  2.05529e-01  1.30621e+01  7.43496e+01  2.60047e+05 -3.45392e+05  4.98990e+02  0.00000e+00 -8.48464e+04  2.40588e+03 -8.24406e+04  2.05524e-01  1.00000e+00 -1.30619e+01  0.00000e+00  2.17846e+00 
 5.88069e-03  3.71014e-03 -5.35987e-21  3.47944e+00  4.91452e-04  3.59940e+02  3.60055e+02  4.70830e+00  4.78865e+00  2.14958e-01  1.18005e+01  7.08997e+01  2.55191e+05 -3.32469e+05  4.73894e+02  0.00000e+00 -7.68043e+04  1.98174e+03 -7.48226e+04  2.14953e-01  1.00000e+00 -1.18004e+01  0.00000e+00  2.41054e+00 
 6.03395e-03  3.94857e-03  5.10973e-21  3.47944e+00  5.12788e-04  3.59952e+02  3.60055e+02  4.68449e+00  4.76373e+00  2.24542e-01  1.06058e+01  6.79499e+01  2.51003e+05 -3.21258e+05  4.52095e+02  0.00000e+00 -6.98028e+04  1.63413e+03 -6.81687e+04  2.24537e-01  1.00000e+00 -1.06056e+01  0.00000e+00  2.67064e+00 
 6.19261e-03  4.18701e-03  0.00000e+00  3.47944e+00  5.31922e-04  3.59963e+02  3.60055e+02  4.65826e+00  4.73637e+00  2.34155e-01  9.46759e+00  6.55057e+01  2.47984e+05 -3.12125e+05  4.33615e+02  0.00000e+00 -6.37076e+04  1.34856e+03 -6.23590e+04  2.34148e-01  1.00000e+00 -9.46742e+00  0.00000e+00  2.96141e+00 
 6.35626e-03  4.42546e-03  0.00000e+00  3.47944e+00  5.48315e-04  3.59976e+02  3.60055e+02  4.62950e+00  4.70649e+00  2.43798e-01  8.37101e+00  6.35475e+01  2.46417e+05 -3.05428e+05  4.18277e+02  0.00000e+00 -5.85923e+04  1.11095e+03 -5.74814e+04  2.43791e-01  1.00000e+00 -8.37084e+00  0.00000e+00  3.28539e+00 
 6.52453e-03  4.66392e-03 -8.96437e-21  3.47944e+00  5.61573e-04  3.59988e+02  3.60055e+02  4.59813e+00  4.67400e+00  2.53320e-01  7.29223e+00  6.20474e+01  2.46584e+05 -3.01270e+05  4.05859e+02  0.00000e+00 -5.42805e+04  9.09417e+02 -5.33711e+04  2.53313e-01  1.00000e+00 -7.29206e+00  0.00000e+00  3.64618e+00 
 6.69707e-03  4.90238e-03  1.72236e-20  3.47944e+00  5.71575e-04  3.60002e+02  3.60055e+02  4.56404e+00  4.63881e+00  2.62769e-01  6.20681e+00  6.09618e+01  2.48522e+05 -2.99781e+05  3.96047e+02  0.00000e+00 -5.08625e+04  7.33159e+02 -5.01293e+04  2.62764e-01  1.00000e+00 -6.20664e+00  0.00000e+00  4.04696e+00 
 6.87356e-03  5.14086e-03  8.28595e-21  3.47944e+00  5.78292e-04  3.60015e+02  3.60055e+02  4.52716e+00  4.60085e+00  2.71980e-01  5.08583e+00  6.02539e+01  2.52391e+05 -3.00873e+05  3.88529e+02  0.00000e+00 -4.80937e+04  5.73658e+02 -4.75201e+04  2.71975e-01  1.00000e+00 -5.08565e+00  0.00000e+00  4.49326e+00 
 7.05370e-03  5.37934e-03 -1.59677e-20  3.47944e+00  5.81910e-04  3.60029e+02  3.60055e+02  4.48729e+00  4.55991e+00  2.81077e-01  3.90242e+00  5.98795e+01  2.58122e+05 -3.04653e+05  3.82978e+02  0.00000e+00 -4.61482e+04  4.23276e+02 -4.57249e+04  2.81071e-01  1.00000e+00 -3.90223e+00  0.00000e+00  4.98933e+00 
 7.23722e-03  5.61783e-03  0.00000e+00  3.47944e+00  5.82560e-04  3.60043e+02  3.60056e+02  4.44444e+00  4.51603e+00  2.89849e-01  2.62631e+00  5.98129e+01  2.65945e+05 -3.11030e+05  3.79149e+02  0.00000e+00 -4.47068e+04  2.75927e+02 -4.44308e+04  2.89844e-01  1.00000e+00 -2.62612e+00  0.00000e+00  5.54436e+00 
 7.42387e-03  5.85632e-03  0.00000e+00  3.47944e+00  5.80563e-04  3.60058e+02  3.60056e+02  4.39813e+00  4.46871e+00  2.98512e-01  1.22726e+00  6.00188e+01  2.75762e+05 -3.20204e+05  3.76773e+02  0.00000e+00 -4.40651e+04  1.25617e+02 -4.39395e+04  2.98506e-01  1.00000e+00 -1.22706e+00  0.00000e+00  6.16433e+00 
 7.61342e-03  6.09482e-03  0.00000e+00  3.47944e+00  5.76048e-04  3.60072e+02  3.60056e+02  4.34859e+00  4.41819e+00  3.06796e-01 -8.24789e-01  6.04895e+01  2.88000e+05 -3.32168e+05  3.75703e+02  0.00000e+00 -4.37914e+04 -8.28427e+01 -4.38742e+04  3.06790e-01  1.00000e+00  8.25217e-01  0.00000e+00  6.86533e+00 
 7.80566e-03  6.33332e-03  0.00000e+00  3.47944e+00  5.69378e-04  3.60088e+02  3.60056e+02  4.29478e+00  4.36341e+00  3.15017e-01 -4.84776e+00  6.11985e+01  3.02561e+05 -3.47287e+05  3.75709e+02  0.00000e+00 -4.43499e+04 -4.79561e+02 -4.48295e+04  3.15010e-01  1.00000e+00  4.84820e+00  0.00000e+00  7.65607e+00 
 8.00039e-03  6.57182e-03  0.00000e+00  3.47944e+00  5.60506e-04  3.60103e+02  3.60056e+02  4.23750e+00  4.30522e+00  3.22830e-01 -9.46335e+00  6.21674e+01  3.20294e+05 -3.65864e+05  3.76799e+02  0.00000e+00 -4.51935e+04 -9.27919e+02 -4.61214e+04  3.22824e-01  1.00000e+00  9.46381e+00  0.00000e+00  8.56648e+00 
 8.19744e-03  6.81033e-03  1.31016e-20  3.47944e+00  5.49690e-04  3.60120e+02  3.60057e+02  4.17428e+00  4.24110e+00  3.30655e-01 -1.48617e+01  6.33910e+01  3.41233e+05 -3.88801e+05  3.78817e+02  0.00000e+00 -4.71884e+04 -1.45075e+03 -4.86392e+04  3.30647e-01  1.00000e+00  1.48622e+01  0.00000e+00  9.60964e+00 
 8.39664e-03  7.04884e-03  0.00000e+00  3.47944e+00  5.36687e-04  3.60138e+02  3.60057e+02  4.10779e+00  4.17377e+00  3.38071e-01 -2.13081e+01  6.49273e+01  3.66997e+05 -4.16969e+05  3.81972e+02  0.00000e+00 -4.95898e+04 -2.08368e+03 -5.16735e+04  3.38064e-01  1.00000e+00  2.13086e+01  0.00000e+00  1.08456e+01 
 8.59784e-03  7.28736e-03  0.00000e+00  3.47944e+00  5.21750e-04  3.60157e+02  3.60057e+02  4.03163e+00  4.09678e+00  3.45594e-01 -2.91947e+01  6.67864e+01  3.97820e+05 -4.52042e+05  3.86020e+02  0.00000e+00 -5.38360e+04 -2.87270e+03 -5.67087e+04  3.45587e-01  1.00000e+00  2.91953e+01  0.00000e+00  1.22956e+01 
 8.80092e-03  7.52587e-03  0.00000e+00  3.47944e+00  5.04403e-04  3.60178e+02  3.60057e+02  3.95386e+00  4.01825e+00  3.52758e-01 -3.91338e+01  6.90837e+01  4.36915e+05 -4.96130e+05  3.91555e+02  0.00000e+00 -5.88240e+04 -3.90222e+03 -6.27262e+04  3.52751e-01  1.00000e+00  3.91344e+01  0.00000e+00  1.40925e+01 
 9.00573e-03  7.76439e-03 -1.17014e-20  3.47944e+00  4.84908e-04  3.60202e+02  3.60058e+02  3.85781e+00  3.92145e+00  3.60142e-01 -5.20698e+01  7.18616e+01  4.85195e+05 -5.52719e+05  3.97921e+02  0.00000e+00 -6.71268e+04 -5.29018e+03 -7.24170e+04  3.60133e-01  1.00000e+00  5.20704e+01  0.00000e+00  1.62797e+01 
 9.21216e-03  8.00291e-03  0.00000e+00  3.47944e+00  4.62382e-04  3.60231e+02  3.60058e+02  3.76540e+00  3.82826e+00  3.67298e-01 -6.97176e+01  7.53631e+01  5.49968e+05 -6.27405e+05  4.06829e+02  0.00000e+00 -7.70302e+04 -7.28350e+03 -8.43137e+04  3.67291e-01  1.00000e+00  6.97182e+01  0.00000e+00  1.91920e+01 
 9.42012e-03  8.24144e-03  0.00000e+00  3.47944e+00  4.37090e-04  3.60267e+02  3.60059e+02  3.63536e+00  3.69728e+00  3.74794e-01 -9.49410e+01  7.97248e+01  6.35023e+05 -7.29078e+05  4.16183e+02  0.00000e+00 -9.36395e+04 -1.02828e+04 -1.03922e+05  3.74785e-01  1.00000e+00  9.49417e+01  0.00000e+00  2.29731e+01 
 9.62949e-03  8.47996e-03  0.00000e+00  3.47944e+00  4.07467e-04  3.60315e+02  3.60059e+02  3.51959e+00  3.57946e+00  3.82327e-01 -1.34013e+02  8.55214e+01  7.60917e+05 -8.74883e+05  4.30737e+02  0.00000e+00 -1.13536e+05 -1.52630e+04 -1.28799e+05  3.82319e-01  1.00000e+00  1.34014e+02  0.00000e+00  2.86610e+01 
 9.84019e-03  8.71849e-03  0.00000e+00  3.47944e+00  3.73804e-04  3.60383e+02  3.60060e+02  3.32797e+00  3.38174e+00  3.90345e-01 -1.99111e+02  9.32243e+01  9.48485e+05 -1.09280e+06  4.43989e+02  0.00000e+00 -1.43876e+05 -2.42116e+04 -1.68088e+05  3.90335e-01  1.00000e+00  1.99111e+02  0.00000e+00  3.72579e+01 
 1.00521e-02  8.95702e-03  0.00000e+00  3.47944e+00  3.34065e-04  3.60494e+02  3.60060e+02  3.14827e+00  3.19515e+00  3.98620e-01 -3.26234e+02  1.04315e+02  1.27838e+06 -1.43969e+06  4.65943e+02  0.00000e+00 -1.60847e+05 -4.34667e+04 -2.04313e+05  3.98611e-01  1.00000e+00  3.26235e+02  0.00000e+00  5.35672e+01 
 1.02653e-02  9.19555e-03  0.00000e+00  3.47944e+00  2.91504e-04  3.60712e+02  3.60061e+02  2.79362e+00  2.82960e+00  4.08213e-01 -6.18386e+02  1.19548e+02  1.88116e+06 -1.95294e+06  4.71139e+02  0.00000e+00 -7.13048e+04 -9.22046e+04 -1.63509e+05  4.08199e-01  1.00000e+00  6.18387e+02  0.00000e+00  8.87135e+01 
 1.04795e-02  9.43408e-03  0.00000e+00  3.47944e+00  2.60235e-04  3.61316e+02  3.60062e+02  2.31324e+00  2.33342e+00  4.17748e-01 -4.88192e+03  1.33914e+02  2.99464e+06 -2.02605e+06  4.51143e+02  5.87972e+05  1.55702e+06 -1.52632e+06  3.06953e+04  4.17731e-01  1.00000e+00  4.88192e+03  3.41342e+03  2.25526e+02 
