# Code_Saturne plot output (1D profile)
#
# Iteration output: 4561
# Time output:      2.30000e+01
#
#COLUMN_TITLES: Distance | X | Y | Z | diameter_Field2 | temp_Field1 | temp_Field2 | Velocity_Field1[Z] | Velocity_Field2[Z] | vol_f_Field2 | mass_trans_Field1 | Xd_Field2 | BK | COAL | COMP | NUCL | W1 | MT | SMBR | ALPBB | CONDNUM | GAMA | GAMANUC | epsilon_Field1
 4.56474e-03  1.39645e-04  0.00000e+00  3.47944e+00  1.46466e-04  3.59981e+02  3.60055e+02  5.01010e+00  5.04171e+00  1.38306e-01  2.48075e+01  2.37889e+02  7.04105e+04 -1.12377e+06  1.59894e+03  0.00000e+00 -1.05176e+06  2.52661e+04 -1.02650e+06  1.38207e-01  1.00000e+00 -2.46572e+01  0.00000e+00  6.54833e-01 
 4.57812e-03  3.76525e-04  4.25872e-21  3.47944e+00  1.87483e-04  3.59981e+02  3.60055e+02  5.00896e+00  5.05122e+00  1.39428e-01  1.79222e+01  1.85845e+02  1.93092e+05 -7.42339e+05  1.25098e+03  0.00000e+00 -5.47996e+05  1.41456e+04 -5.33850e+05  1.39315e-01  1.00000e+00 -1.78127e+01  0.00000e+00  6.63732e-01 
 4.60371e-03  6.13858e-04  0.00000e+00  3.47944e+00  2.11560e-04  3.59982e+02  3.60055e+02  5.00701e+00  5.05551e+00  1.41479e-01  1.53715e+01  1.64695e+02  2.59557e+05 -6.15704e+05  1.10985e+03  0.00000e+00 -3.55038e+05  1.05955e+04 -3.44442e+05  1.41364e-01  1.00000e+00 -1.52765e+01  0.00000e+00  6.80867e-01 
 4.64138e-03  8.51483e-04  0.00000e+00  3.47944e+00  2.25681e-04  3.59984e+02  3.60055e+02  5.00435e+00  5.05636e+00  1.44390e-01  1.42130e+01  1.54389e+02  2.98926e+05 -5.68081e+05  1.04108e+03  0.00000e+00 -2.68114e+05  8.99745e+03 -2.59116e+05  1.44285e-01  1.00000e+00 -1.41236e+01  0.00000e+00  7.06546e-01 
 4.69084e-03  1.08931e-03  0.00000e+00  3.47944e+00  2.34478e-04  3.59986e+02  3.60055e+02  5.00080e+00  5.05479e+00  1.48262e-01  1.36082e+01  1.48597e+02  3.30060e+05 -5.53796e+05  1.00227e+03  0.00000e+00 -2.22734e+05  8.07324e+03 -2.14661e+05  1.48167e-01  1.00000e+00 -1.35205e+01  0.00000e+00  7.41187e-01 
 4.75174e-03  1.32727e-03  1.05001e-20  3.47944e+00  2.40346e-04  3.59989e+02  3.60055e+02  4.99629e+00  5.05138e+00  1.53053e-01  1.32473e+01  1.44969e+02  3.60031e+05 -5.57332e+05  9.77760e+02  0.00000e+00 -1.96324e+05  7.42513e+03 -1.88898e+05  1.52969e-01  1.00000e+00 -1.31593e+01  0.00000e+00  7.85568e-01 
 4.82366e-03  1.56534e-03  0.00000e+00  3.47944e+00  2.44653e-04  3.59992e+02  3.60055e+02  4.99073e+00  5.04639e+00  1.58799e-01  1.29891e+01  1.42417e+02  3.91635e+05 -5.72195e+05  9.60342e+02  0.00000e+00 -1.79600e+05  6.89084e+03 -1.72710e+05  1.58731e-01  1.00000e+00 -1.28994e+01  0.00000e+00  8.40611e-01 
 4.90611e-03  1.80349e-03  8.81027e-21  3.47944e+00  2.48200e-04  3.59996e+02  3.60055e+02  4.98403e+00  5.03995e+00  1.65461e-01  1.27504e+01  1.40382e+02  4.26026e+05 -5.94911e+05  9.46258e+02  0.00000e+00 -1.67940e+05  6.39631e+03 -1.61543e+05  1.65408e-01  1.00000e+00 -1.26581e+01  0.00000e+00  9.07507e-01 
 4.99859e-03  2.04170e-03  0.00000e+00  3.47944e+00  2.51484e-04  3.60000e+02  3.60055e+02  4.97605e+00  5.03208e+00  1.73019e-01  1.24804e+01  1.38548e+02  4.63480e+05 -6.23484e+05  9.33405e+02  0.00000e+00 -1.59070e+05  5.90596e+03 -1.53164e+05  1.72985e-01  1.00000e+00 -1.23848e+01  0.00000e+00  9.87604e-01 
 5.10055e-03  2.27996e-03  7.58893e-21  3.47944e+00  2.54821e-04  3.60004e+02  3.60055e+02  4.96665e+00  5.02270e+00  1.81410e-01  1.21423e+01  1.36734e+02  5.03797e+05 -6.56413e+05  9.20518e+02  0.00000e+00 -1.51695e+05  5.40487e+03 -1.46290e+05  1.81402e-01  1.00000e+00 -1.20432e+01  0.00000e+00  1.08247e+00 
 5.21143e-03  2.51826e-03  7.09702e-21  3.47944e+00  2.58419e-04  3.60009e+02  3.60055e+02  4.95567e+00  5.01173e+00  1.90589e-01  1.17111e+01  1.34830e+02  5.46402e+05 -6.92437e+05  9.06824e+02  0.00000e+00 -1.45128e+05  4.88946e+03 -1.40239e+05  1.90592e-01  1.00000e+00 -1.16082e+01  0.00000e+00  1.19380e+00 
 5.33068e-03  2.75659e-03  1.33300e-20  3.47944e+00  2.62415e-04  3.60014e+02  3.60055e+02  4.94292e+00  4.99898e+00  2.00449e-01  1.11704e+01  1.32777e+02  5.90482e+05 -7.30317e+05  8.91896e+02  0.00000e+00 -1.38944e+05  4.36329e+03 -1.34580e+05  2.00456e-01  1.00000e+00 -1.10636e+01  0.00000e+00  1.32345e+00 
 5.45775e-03  2.99495e-03  1.25651e-20  3.47944e+00  2.66896e-04  3.60019e+02  3.60055e+02  4.92821e+00  4.98431e+00  2.10880e-01  1.05124e+01  1.30548e+02  6.35001e+05 -7.68855e+05  8.75578e+02  0.00000e+00 -1.32979e+05  3.83393e+03 -1.29145e+05  2.10889e-01  1.00000e+00 -1.04019e+01  0.00000e+00  1.47328e+00 
 5.59212e-03  3.23333e-03  0.00000e+00  3.47944e+00  2.71894e-04  3.60025e+02  3.60055e+02  4.91134e+00  4.96753e+00  2.21695e-01  9.73675e+00  1.28149e+02  6.78981e+05 -8.06727e+05  8.57824e+02  0.00000e+00 -1.26888e+05  3.31170e+03 -1.23576e+05  2.21703e-01  1.00000e+00 -9.62259e+00  0.00000e+00  1.64526e+00 
 5.73326e-03  3.47172e-03  0.00000e+00  3.47944e+00  2.77409e-04  3.60030e+02  3.60055e+02  4.89217e+00  4.94850e+00  2.32808e-01  8.85483e+00  1.25601e+02  7.21343e+05 -8.43055e+05  8.38897e+02  0.00000e+00 -1.20873e+05  2.80661e+03 -1.18066e+05  2.32815e-01  1.00000e+00 -8.73737e+00  0.00000e+00  1.84123e+00 
 5.88069e-03  3.71014e-03 -5.35987e-21  3.47944e+00  2.83385e-04  3.60036e+02  3.60055e+02  4.87052e+00  4.92704e+00  2.44040e-01  7.88182e+00  1.22953e+02  7.61394e+05 -8.76972e+05  8.18911e+02  0.00000e+00 -1.14759e+05  2.32823e+03 -1.12431e+05  2.44047e-01  1.00000e+00 -7.76143e+00  0.00000e+00  2.06335e+00 
 6.03395e-03  3.94857e-03  5.10973e-21  3.47944e+00  2.89738e-04  3.60041e+02  3.60055e+02  4.84630e+00  4.90305e+00  2.55361e-01  6.84059e+00  1.20257e+02  7.98415e+05 -9.08252e+05  7.98327e+02  0.00000e+00 -1.09039e+05  1.88356e+03 -1.07155e+05  2.55368e-01  1.00000e+00 -6.71759e+00  0.00000e+00  2.31327e+00 
 6.19261e-03  4.18701e-03  0.00000e+00  3.47944e+00  2.96320e-04  3.60046e+02  3.60055e+02  4.81941e+00  4.87640e+00  2.66616e-01  5.75196e+00  1.17586e+02  8.32471e+05 -9.36799e+05  7.77454e+02  0.00000e+00 -1.03550e+05  1.47752e+03 -1.02073e+05  2.66622e-01  1.00000e+00 -5.62666e+00  0.00000e+00  2.59381e+00 
 6.35626e-03  4.42546e-03  0.00000e+00  3.47944e+00  3.02956e-04  3.60051e+02  3.60055e+02  4.78983e+00  4.84706e+00  2.77689e-01  4.63734e+00  1.15010e+02  8.63508e+05 -9.62731e+05  7.56996e+02  0.00000e+00 -9.84660e+04  1.11217e+03 -9.73539e+04  2.77696e-01  1.00000e+00 -4.51001e+00  0.00000e+00  2.90580e+00 
 6.52453e-03  4.66392e-03 -8.96437e-21  3.47944e+00  3.09412e-04  3.60056e+02  3.60055e+02  4.75759e+00  4.81501e+00  2.88379e-01  3.51475e+00  1.12611e+02  8.92517e+05 -9.86546e+05  7.37228e+02  0.00000e+00 -9.32918e+04  7.87162e+02 -9.25047e+04  2.88388e-01  1.00000e+00 -3.38559e+00  0.00000e+00  3.25240e+00 
 6.69707e-03  4.90238e-03  1.72236e-20  3.47944e+00  3.15482e-04  3.60061e+02  3.60055e+02  4.72264e+00  4.78019e+00  2.98702e-01  2.40097e+00  1.10445e+02  9.20199e+05 -1.00936e+06  7.18812e+02  0.00000e+00 -8.84399e+04  4.99750e+02 -8.79401e+04  2.98711e-01  1.00000e+00 -2.27003e+00  0.00000e+00  3.63596e+00 
 6.87356e-03  5.14086e-03  8.28595e-21  3.47944e+00  3.20927e-04  3.60066e+02  3.60055e+02  4.68500e+00  4.74252e+00  3.08644e-01  1.30596e+00  1.08571e+02  9.47928e+05 -1.03265e+06  7.01972e+02  0.00000e+00 -8.40207e+04  2.45714e+02 -8.37750e+04  3.08651e-01  1.00000e+00 -1.17315e+00  0.00000e+00  4.06160e+00 
 7.05370e-03  5.37934e-03 -1.59677e-20  3.47944e+00  3.25564e-04  3.60070e+02  3.60055e+02  4.64456e+00  4.70192e+00  3.18226e-01  4.42211e-01  1.07025e+02  9.76748e+05 -1.05772e+06  6.86987e+02  0.00000e+00 -8.02904e+04  2.96953e+01 -8.02607e+04  3.18234e-01  1.00000e+00 -1.48292e-01  0.00000e+00  4.53369e+00 
 7.23722e-03  5.61783e-03  0.00000e+00  3.47944e+00  3.29189e-04  3.60074e+02  3.60055e+02  4.60127e+00  4.65826e+00  3.27399e-01 -1.89792e+00  1.05847e+02  1.00834e+06 -1.08608e+06  6.73976e+02  0.00000e+00 -7.70604e+04 -4.22945e+02 -7.74833e+04  3.27406e-01  1.00000e+00  2.19717e+00  0.00000e+00  5.06029e+00 
 7.42387e-03  5.85632e-03  0.00000e+00  3.47944e+00  3.31693e-04  3.60078e+02  3.60055e+02  4.55485e+00  4.61129e+00  3.36228e-01 -4.22332e+00  1.05048e+02  1.04374e+06 -1.11908e+06  6.63048e+02  0.00000e+00 -7.46730e+04 -8.42483e+02 -7.55155e+04  3.36234e-01  1.00000e+00  4.52882e+00  0.00000e+00  5.64851e+00 
 7.61342e-03  6.09482e-03  0.00000e+00  3.47944e+00  3.32911e-04  3.60082e+02  3.60056e+02  4.50519e+00  4.56080e+00  3.44658e-01 -6.58085e+00  1.04664e+02  1.08503e+06 -1.15853e+06  6.54207e+02  0.00000e+00 -7.28410e+04 -1.24648e+03 -7.40875e+04  3.44664e-01  1.00000e+00  6.89372e+00  0.00000e+00  6.31269e+00 
 7.80566e-03  6.33332e-03  0.00000e+00  3.47944e+00  3.32827e-04  3.60086e+02  3.60056e+02  4.45168e+00  4.50625e+00  3.52819e-01 -9.03862e+00  1.04691e+02  1.13310e+06 -1.20595e+06  6.47441e+02  0.00000e+00 -7.22030e+04 -1.65374e+03 -7.38567e+04  3.52826e-01  1.00000e+00  9.36025e+00  0.00000e+00  7.06412e+00 
 8.00039e-03  6.57182e-03  0.00000e+00  3.47944e+00  3.31292e-04  3.60089e+02  3.60056e+02  4.39441e+00  4.44766e+00  3.60627e-01 -1.16822e+01  1.05177e+02  1.19090e+06 -1.26384e+06  6.42722e+02  0.00000e+00 -7.22988e+04 -2.08629e+03 -7.43851e+04  3.60636e-01  1.00000e+00  1.20142e+01  0.00000e+00  7.92864e+00 
 8.19744e-03  6.81033e-03  1.31016e-20  3.47944e+00  3.28354e-04  3.60093e+02  3.60056e+02  4.33202e+00  4.38372e+00  3.68234e-01 -1.46381e+01  1.06118e+02  1.25966e+06 -1.33430e+06  6.39990e+02  0.00000e+00 -7.39983e+04 -2.57072e+03 -7.65691e+04  3.68253e-01  1.00000e+00  1.49824e+01  0.00000e+00  8.92685e+00 
 8.39664e-03  7.04884e-03  0.00000e+00  3.47944e+00  3.23835e-04  3.60097e+02  3.60056e+02  4.26531e+00  4.31517e+00  3.75555e-01 -1.80829e+01  1.07600e+02  1.34398e+06 -1.42163e+06  6.39646e+02  0.00000e+00 -7.70087e+04 -3.14583e+03 -8.01545e+04  3.75588e-01  1.00000e+00  1.84419e+01  0.00000e+00  1.01045e+01 
 8.59784e-03  7.28736e-03  0.00000e+00  3.47944e+00  3.17808e-04  3.60101e+02  3.60057e+02  4.19066e+00  4.23842e+00  3.82776e-01 -2.22865e+01  1.09641e+02  1.44663e+06 -1.52981e+06  6.40928e+02  0.00000e+00 -8.25392e+04 -3.86472e+03 -8.64039e+04  3.82830e-01  1.00000e+00  2.26630e+01  0.00000e+00  1.15054e+01 
 8.80092e-03  7.52587e-03  0.00000e+00  3.47944e+00  3.09977e-04  3.60107e+02  3.60057e+02  4.11184e+00  4.15725e+00  3.89750e-01 -2.76839e+01  1.12412e+02  1.57717e+06 -1.66752e+06  6.42933e+02  0.00000e+00 -8.97053e+04 -4.82182e+03 -9.45271e+04  3.89809e-01  1.00000e+00  2.80816e+01  0.00000e+00  1.32337e+01 
 9.00573e-03  7.76439e-03 -1.17014e-20  3.47944e+00  3.00447e-04  3.60113e+02  3.60057e+02  4.01839e+00  4.06115e+00  3.96793e-01 -3.49935e+01  1.15978e+02  1.74058e+06 -1.84354e+06  6.50345e+02  0.00000e+00 -1.02308e+05 -6.16295e+03 -1.08471e+05  3.96850e-01  1.00000e+00  3.54169e+01  0.00000e+00  1.53651e+01 
 9.21216e-03  8.00291e-03  0.00000e+00  3.47944e+00  2.88690e-04  3.60121e+02  3.60058e+02  3.92298e+00  3.96279e+00  4.03684e-01 -4.55325e+01  1.20703e+02  1.96037e+06 -2.07940e+06  6.59867e+02  0.00000e+00 -1.18371e+05 -8.18652e+03 -1.26558e+05  4.03736e-01  1.00000e+00  4.59883e+01  0.00000e+00  1.81832e+01 
 9.42012e-03  8.24144e-03  0.00000e+00  3.47944e+00  2.74762e-04  3.60133e+02  3.60058e+02  3.79779e+00  3.83444e+00  4.10745e-01 -6.17754e+01  1.26822e+02  2.25322e+06 -2.39979e+06  6.71608e+02  0.00000e+00 -1.45902e+05 -1.14472e+04 -1.57349e+05  4.10797e-01  1.00000e+00  6.22719e+01  0.00000e+00  2.19016e+01 
 9.62949e-03  8.47996e-03  0.00000e+00  3.47944e+00  2.57723e-04  3.60151e+02  3.60059e+02  3.67304e+00  3.70556e+00  4.17847e-01 -8.91716e+01  1.35208e+02  2.68494e+06 -2.86942e+06  6.89924e+02  0.00000e+00 -1.83790e+05 -1.72847e+04 -2.01075e+05  4.17897e-01  1.00000e+00  8.97226e+01  0.00000e+00  2.73778e+01 
 9.84019e-03  8.71849e-03  0.00000e+00  3.47944e+00  2.37493e-04  3.60181e+02  3.60059e+02  3.48484e+00  3.51361e+00  4.25112e-01 -1.40503e+02  1.46727e+02  3.33136e+06 -3.58402e+06  7.12961e+02  0.00000e+00 -2.51950e+05 -2.90003e+04 -2.80951e+05  4.25147e-01  1.00000e+00  1.41127e+02  0.00000e+00  3.55234e+01 
 1.00521e-02  8.95702e-03  0.00000e+00  3.47944e+00  2.12123e-04  3.60237e+02  3.60060e+02  3.30111e+00  3.32666e+00  4.32581e-01 -2.55737e+02  1.64278e+02  4.49901e+06 -4.83842e+06  7.49536e+02  0.00000e+00 -3.38660e+05 -5.79914e+04 -3.96652e+05  4.32603e-01  1.00000e+00  2.56474e+02  0.00000e+00  5.06675e+01 
 1.02653e-02  9.19555e-03  0.00000e+00  3.47944e+00  1.81751e-04  3.60367e+02  3.60061e+02  2.95863e+00  2.98046e+00  4.40654e-01 -5.87397e+02  1.91733e+02  6.86130e+06 -7.24035e+06  7.80836e+02  0.00000e+00 -3.78268e+05 -1.52414e+05 -5.30682e+05  4.40676e-01  1.00000e+00  5.88307e+02  0.00000e+00  8.36284e+01 
 1.04795e-02  9.43408e-03  0.00000e+00  3.47944e+00  1.48554e-04  3.60824e+02  3.60062e+02  2.48042e+00  2.49495e+00  4.51889e-01 -5.32356e+03  2.34583e+02  1.32345e+07 -1.18955e+07  8.23875e+02  1.39449e+06  2.73438e+06 -2.76751e+06 -3.31347e+04  4.51902e-01  1.00000e+00  5.32475e+03  3.24209e+03  2.10875e+02 
