# Code_Saturne plot output (1D profile)
#
# Iteration output: 4971
# Time output:      2.30009e+01
#
#COLUMN_TITLES: Distance | X | Y | Z | diameter_Field2 | temp_Field1 | temp_Field2 | Velocity_Field1[Z] | Velocity_Field2[Z] | vol_f_Field2 | mass_trans_Field1 | Xd_Field2 | BK | COAL | COMP | NUCL | W1 | MT | SMBR | ALPBB | CONDNUM | GAMA | GAMANUC | epsilon_Field1
 4.56474e-03  1.39645e-04  0.00000e+00  3.47944e+00  2.72788e-04  3.60093e+02  3.60061e+02  5.65339e+00  5.71856e+00  2.88474e-01 -7.27538e+00  1.27684e+02  6.10814e+05 -8.10327e+05  1.08035e+03  0.00000e+00 -1.98433e+05 -6.14739e+02 -1.99048e+05  2.88470e-01  1.00000e+00  6.98000e+00  0.00000e+00  1.24346e+00 
 4.57812e-03  3.76525e-04  4.25872e-21  3.47944e+00  2.77152e-04  3.60093e+02  3.60061e+02  5.65212e+00  5.71857e+00  2.89529e-01 -7.23016e+00  1.25674e+02  6.12675e+05 -7.93291e+05  1.06323e+03  0.00000e+00 -1.79552e+05 -5.99333e+02 -1.80152e+05  2.89525e-01  1.00000e+00  6.93917e+00  0.00000e+00  1.25799e+00 
 4.60371e-03  6.13858e-04  0.00000e+00  3.47944e+00  2.79378e-04  3.60094e+02  3.60061e+02  5.64932e+00  5.71617e+00  2.91264e-01 -7.34312e+00  1.24672e+02  6.20963e+05 -7.91801e+05  1.05459e+03  0.00000e+00 -1.69783e+05 -6.00703e+02 -1.70384e+05  2.91256e-01  1.00000e+00  7.05282e+00  0.00000e+00  1.28644e+00 
 4.64138e-03  8.51483e-04  0.00000e+00  3.47944e+00  2.80405e-04  3.60094e+02  3.60061e+02  5.64511e+00  5.71186e+00  2.93764e-01 -7.58103e+00  1.24216e+02  6.34977e+05 -8.00846e+05  1.05037e+03  0.00000e+00 -1.64818e+05 -6.13291e+02 -1.65431e+05  2.93750e-01  1.00000e+00  7.28894e+00  0.00000e+00  1.32935e+00 
 4.69084e-03  1.08931e-03  0.00000e+00  3.47944e+00  2.80898e-04  3.60094e+02  3.60061e+02  5.63938e+00  5.70574e+00  2.97008e-01 -7.92015e+00  1.23998e+02  6.54116e+05 -8.17000e+05  1.04798e+03  0.00000e+00 -1.61836e+05 -6.33440e+02 -1.62469e+05  2.96985e-01  1.00000e+00  7.62467e+00  0.00000e+00  1.38738e+00 
 4.75174e-03  1.32727e-03  1.05001e-20  3.47944e+00  2.81196e-04  3.60095e+02  3.60061e+02  5.63206e+00  5.69783e+00  3.00960e-01 -8.34629e+00  1.23867e+02  6.77975e+05 -8.38533e+05  1.04614e+03  0.00000e+00 -1.59512e+05 -6.59018e+02 -1.60171e+05  3.00926e-01  1.00000e+00  8.04631e+00  0.00000e+00  1.46148e+00 
 4.82366e-03  1.56534e-03  0.00000e+00  3.47944e+00  2.81493e-04  3.60095e+02  3.60061e+02  5.62306e+00  5.68812e+00  3.05594e-01 -8.84841e+00  1.23736e+02  7.06124e+05 -8.64396e+05  1.04409e+03  0.00000e+00 -1.57228e+05 -6.88392e+02 -1.57916e+05  3.05547e-01  1.00000e+00  8.54308e+00  0.00000e+00  1.55272e+00 
 4.90611e-03  1.80349e-03  8.81027e-21  3.47944e+00  2.81894e-04  3.60096e+02  3.60061e+02  5.61227e+00  5.67654e+00  3.10853e-01 -9.41596e+00  1.23560e+02  7.38147e+05 -8.93860e+05  1.04139e+03  0.00000e+00 -1.54671e+05 -7.20220e+02 -1.55391e+05  3.10798e-01  1.00000e+00  9.10466e+00  0.00000e+00  1.66238e+00 
 4.99859e-03  2.04170e-03  0.00000e+00  3.47944e+00  2.82463e-04  3.60097e+02  3.60061e+02  5.59958e+00  5.66300e+00  3.16682e-01 -1.00378e+01  1.23311e+02  7.73536e+05 -9.26305e+05  1.03777e+03  0.00000e+00 -1.51732e+05 -7.53227e+02 -1.52485e+05  3.16624e-01  1.00000e+00  9.72003e+00  0.00000e+00  1.79179e+00 
 5.10055e-03  2.27996e-03  7.58893e-21  3.47944e+00  2.83230e-04  3.60098e+02  3.60061e+02  5.58488e+00  5.64743e+00  3.23003e-01 -1.07017e+01  1.22977e+02  8.11766e+05 -9.61180e+05  1.03310e+03  0.00000e+00 -1.48381e+05 -7.86274e+02 -1.49167e+05  3.22951e-01  1.00000e+00  1.03772e+01  0.00000e+00  1.94239e+00 
 5.21143e-03  2.51826e-03  7.09702e-21  3.47944e+00  2.84205e-04  3.60098e+02  3.60061e+02  5.56807e+00  5.62974e+00  3.29726e-01 -1.13940e+01  1.22555e+02  8.52278e+05 -9.97850e+05  1.02738e+03  0.00000e+00 -1.44545e+05 -8.18286e+02 -1.45363e+05  3.29680e-01  1.00000e+00  1.10626e+01  0.00000e+00  2.11561e+00 
 5.33068e-03  2.75659e-03  1.33300e-20  3.47944e+00  2.85370e-04  3.60099e+02  3.60061e+02  5.54907e+00  5.60986e+00  3.36725e-01 -1.21006e+01  1.22055e+02  8.94603e+05 -1.03572e+06  1.02073e+03  0.00000e+00 -1.40093e+05 -8.48470e+02 -1.40941e+05  3.36682e-01  1.00000e+00  1.17623e+01  0.00000e+00  2.31300e+00 
 5.45775e-03  2.99495e-03  1.25651e-20  3.47944e+00  2.86695e-04  3.60100e+02  3.60061e+02  5.52782e+00  5.58772e+00  3.43946e-01 -1.28097e+01  1.21491e+02  9.38167e+05 -1.07446e+06  1.01318e+03  0.00000e+00 -1.35283e+05 -8.76165e+02 -1.36160e+05  3.43906e-01  1.00000e+00  1.24644e+01  0.00000e+00  2.53596e+00 
 5.59212e-03  3.23333e-03  0.00000e+00  3.47944e+00  2.88129e-04  3.60100e+02  3.60061e+02  5.50429e+00  5.56330e+00  3.51293e-01 -1.35095e+01  1.20886e+02  9.82614e+05 -1.11379e+06  1.00490e+03  0.00000e+00 -1.30171e+05 -9.01008e+02 -1.31072e+05  3.51259e-01  1.00000e+00  1.31574e+01  0.00000e+00  2.78603e+00 
 5.73326e-03  3.47172e-03  0.00000e+00  3.47944e+00  2.89615e-04  3.60101e+02  3.60061e+02  5.47842e+00  5.53654e+00  3.58694e-01 -1.41911e+01  1.20267e+02  1.02766e+06 -1.15354e+06  9.96173e+02  0.00000e+00 -1.24888e+05 -9.22902e+02 -1.25810e+05  3.58665e-01  1.00000e+00  1.38322e+01  0.00000e+00  3.06471e+00 
 5.88069e-03  3.71014e-03 -5.35987e-21  3.47944e+00  2.91074e-04  3.60101e+02  3.60061e+02  5.45020e+00  5.50745e+00  3.66031e-01 -1.48461e+01  1.19664e+02  1.07333e+06 -1.19363e+06  9.87159e+02  0.00000e+00 -1.19318e+05 -9.42023e+02 -1.20260e+05  3.66007e-01  1.00000e+00  1.44804e+01  0.00000e+00  3.37371e+00 
 6.03395e-03  3.94857e-03  5.10973e-21  3.47944e+00  2.92440e-04  3.60102e+02  3.60061e+02  5.41966e+00  5.47601e+00  3.73342e-01 -1.54725e+01  1.19105e+02  1.11952e+06 -1.23448e+06  9.78160e+02  0.00000e+00 -1.13987e+05 -9.58586e+02 -1.14945e+05  3.73322e-01  1.00000e+00  1.51000e+01  0.00000e+00  3.71494e+00 
 6.19261e-03  4.18701e-03  0.00000e+00  3.47944e+00  2.93625e-04  3.60102e+02  3.60061e+02  5.38677e+00  5.44219e+00  3.80588e-01 -1.60689e+01  1.18625e+02  1.16672e+06 -1.27663e+06  9.69295e+02  0.00000e+00 -1.08944e+05 -9.73089e+02 -1.09917e+05  3.80571e-01  1.00000e+00  1.56894e+01  0.00000e+00  4.09198e+00 
 6.35626e-03  4.42546e-03  0.00000e+00  3.47944e+00  2.94550e-04  3.60102e+02  3.60061e+02  5.35152e+00  5.40599e+00  3.87718e-01 -1.66370e+01  1.18253e+02  1.21514e+06 -1.32048e+06  9.60969e+02  0.00000e+00 -1.04378e+05 -9.86223e+02 -1.05364e+05  3.87705e-01  1.00000e+00  1.62503e+01  0.00000e+00  4.50629e+00 
 6.52453e-03  4.66392e-03 -8.96437e-21  3.47944e+00  2.95121e-04  3.60102e+02  3.60061e+02  5.31389e+00  5.36737e+00  3.94643e-01 -1.71770e+01  1.18024e+02  1.26583e+06 -1.36673e+06  9.53234e+02  0.00000e+00 -9.99422e+04 -9.98720e+02 -1.00941e+05  3.94633e-01  1.00000e+00  1.67827e+01  0.00000e+00  4.96297e+00 
 6.69707e-03  4.90238e-03  1.72236e-20  3.47944e+00  2.95275e-04  3.60103e+02  3.60061e+02  5.27376e+00  5.32618e+00  4.01375e-01 -1.76994e+01  1.17963e+02  1.31930e+06 -1.41617e+06  9.46527e+02  0.00000e+00 -9.59267e+04 -1.01152e+03 -9.69382e+04  4.01367e-01  1.00000e+00  1.72969e+01  0.00000e+00  5.46547e+00 
 6.87356e-03  5.14086e-03  8.28595e-21  3.47944e+00  2.94941e-04  3.60103e+02  3.60062e+02  5.23102e+00  5.28230e+00  4.07899e-01 -1.82078e+01  1.18097e+02  1.37674e+06 -1.46995e+06  9.40795e+02  0.00000e+00 -9.22670e+04 -1.02526e+03 -9.32923e+04  4.07893e-01  1.00000e+00  1.77965e+01  0.00000e+00  6.02113e+00 
 7.05370e-03  5.37934e-03 -1.59677e-20  3.47944e+00  2.94071e-04  3.60103e+02  3.60062e+02  5.18552e+00  5.23558e+00  4.14247e-01 -1.87191e+01  1.18447e+02  1.43901e+06 -1.52920e+06  9.36311e+02  0.00000e+00 -8.92580e+04 -1.04107e+03 -9.02991e+04  4.14241e-01  1.00000e+00  1.82981e+01  0.00000e+00  6.63640e+00 
 7.23722e-03  5.61783e-03  0.00000e+00  3.47944e+00  2.92600e-04  3.60103e+02  3.60062e+02  5.13710e+00  5.18583e+00  4.20414e-01 -1.92429e+01  1.19043e+02  1.50770e+06 -1.59549e+06  9.33113e+02  0.00000e+00 -8.68618e+04 -1.05987e+03 -8.79216e+04  4.20407e-01  1.00000e+00  1.88112e+01  0.00000e+00  7.32249e+00 
 7.42387e-03  5.85632e-03  0.00000e+00  3.47944e+00  2.90508e-04  3.60103e+02  3.60062e+02  5.08544e+00  5.13276e+00  4.26425e-01 -1.98025e+01  1.19901e+02  1.58392e+06 -1.67020e+06  9.31315e+02  0.00000e+00 -8.53466e+04 -1.08309e+03 -8.64297e+04  4.26418e-01  1.00000e+00  1.93588e+01  0.00000e+00  8.08937e+00 
 7.61342e-03  6.09482e-03  0.00000e+00  3.47944e+00  2.87724e-04  3.60102e+02  3.60062e+02  5.03040e+00  5.07617e+00  4.32257e-01 -2.04187e+01  1.21062e+02  1.67019e+06 -1.75564e+06  9.30995e+02  0.00000e+00 -8.45240e+04 -1.11242e+03 -8.56364e+04  4.32251e-01  1.00000e+00  1.99616e+01  0.00000e+00  8.95596e+00 
 7.80566e-03  6.33332e-03  0.00000e+00  3.47944e+00  2.84251e-04  3.60102e+02  3.60063e+02  4.97125e+00  5.01537e+00  4.37978e-01 -2.11317e+01  1.22542e+02  1.76790e+06 -1.85382e+06  9.32272e+02  0.00000e+00 -8.49888e+04 -1.15016e+03 -8.61389e+04  4.37973e-01  1.00000e+00  2.06595e+01  0.00000e+00  9.93791e+00 
 8.00039e-03  6.57182e-03  0.00000e+00  3.47944e+00  2.79997e-04  3.60102e+02  3.60063e+02  4.90811e+00  4.95043e+00  4.43540e-01 -2.19878e+01  1.24404e+02  1.88125e+06 -1.96855e+06  9.35278e+02  0.00000e+00 -8.63626e+04 -1.19981e+03 -8.75624e+04  4.43537e-01  1.00000e+00  2.14985e+01  0.00000e+00  1.10691e+01 
 8.19744e-03  6.81033e-03  1.31016e-20  3.47944e+00  2.74976e-04  3.60102e+02  3.60063e+02  4.83939e+00  4.87981e+00  4.49035e-01 -2.30682e+01  1.26677e+02  2.01252e+06 -2.10313e+06  9.40053e+02  0.00000e+00 -8.96670e+04 -1.26631e+03 -9.09333e+04  4.49035e-01  1.00000e+00  2.25594e+01  0.00000e+00  1.23756e+01 
 8.39664e-03  7.04884e-03  0.00000e+00  3.47944e+00  2.69049e-04  3.60103e+02  3.60064e+02  4.76626e+00  4.80463e+00  4.54418e-01 -2.44842e+01  1.29468e+02  2.16930e+06 -2.26470e+06  9.46973e+02  0.00000e+00 -9.44563e+04 -1.35787e+03 -9.58141e+04  4.54420e-01  1.00000e+00  2.39528e+01  0.00000e+00  1.39234e+01 
 8.59784e-03  7.28736e-03  0.00000e+00  3.47944e+00  2.62227e-04  3.60103e+02  3.60064e+02  4.68417e+00  4.72038e+00  4.59755e-01 -2.64334e+01  1.32837e+02  2.35645e+06 -2.45956e+06  9.55922e+02  0.00000e+00 -1.02160e+05 -1.48759e+03 -1.03648e+05  4.59756e-01  1.00000e+00  2.58760e+01  0.00000e+00  1.57625e+01 
 8.80092e-03  7.52587e-03  0.00000e+00  3.47944e+00  2.54288e-04  3.60104e+02  3.60064e+02  4.59832e+00  4.63220e+00  4.65073e-01 -2.92181e+01  1.36986e+02  2.58856e+06 -2.70261e+06  9.68290e+02  0.00000e+00 -1.13082e+05 -1.67790e+03 -1.14760e+05  4.65072e-01  1.00000e+00  2.86298e+01  0.00000e+00  1.80291e+01 
 9.00573e-03  7.76439e-03 -1.17014e-20  3.47944e+00  2.45219e-04  3.60106e+02  3.60065e+02  4.49527e+00  4.52669e+00  4.70439e-01 -3.34177e+01  1.42053e+02  2.87758e+06 -3.00878e+06  9.82807e+02  0.00000e+00 -1.30219e+05 -1.97024e+03 -1.32189e+05  4.70435e-01  1.00000e+00  3.27926e+01  0.00000e+00  2.08394e+01 
 9.21216e-03  8.00291e-03  0.00000e+00  3.47944e+00  2.34599e-04  3.60108e+02  3.60065e+02  4.39277e+00  4.42164e+00  4.75852e-01 -4.00492e+01  1.48485e+02  3.26107e+06 -3.41513e+06  1.00203e+03  0.00000e+00 -1.53053e+05 -2.44491e+03 -1.55498e+05  4.75848e-01  1.00000e+00  3.93786e+01  0.00000e+00  2.45597e+01 
 9.42012e-03  8.24144e-03  0.00000e+00  3.47944e+00  2.22421e-04  3.60113e+02  3.60066e+02  4.25005e+00  4.27553e+00  4.81402e-01 -5.13041e+01  1.56617e+02  3.76662e+06 -3.96178e+06  1.02703e+03  0.00000e+00 -1.94133e+05 -3.27399e+03 -1.97407e+05  4.81399e-01  1.00000e+00  5.05774e+01  0.00000e+00  2.94119e+01 
 9.62949e-03  8.47996e-03  0.00000e+00  3.47944e+00  2.07835e-04  3.60122e+02  3.60066e+02  4.11995e+00  4.14264e+00  4.87172e-01 -7.19669e+01  1.67610e+02  4.50973e+06 -4.76587e+06  1.06142e+03  0.00000e+00 -2.55076e+05 -4.87155e+03 -2.59948e+05  4.87175e-01  1.00000e+00  7.11653e+01  0.00000e+00  3.65510e+01 
 9.84019e-03  8.71849e-03  0.00000e+00  3.47944e+00  1.90599e-04  3.60138e+02  3.60067e+02  3.91109e+00  3.93067e+00  4.93085e-01 -1.14919e+02  1.82770e+02  5.63542e+06 -6.00430e+06  1.10155e+03  0.00000e+00 -3.67780e+05 -8.40870e+03 -3.76189e+05  4.93092e-01  1.00000e+00  1.14017e+02  0.00000e+00  4.72226e+01 
 1.00521e-02  8.95702e-03  0.00000e+00  3.47944e+00  1.68858e-04  3.60173e+02  3.60068e+02  3.71532e+00  3.73240e+00  4.99450e-01 -2.22736e+02  2.06305e+02  7.69996e+06 -8.25543e+06  1.17009e+03  0.00000e+00 -5.54307e+05 -1.82192e+04 -5.72526e+05  4.99458e-01  1.00000e+00  2.21681e+02  0.00000e+00  6.70952e+01 
 1.02653e-02  9.19555e-03  0.00000e+00  3.47944e+00  1.42020e-04  3.60266e+02  3.60069e+02  3.34200e+00  3.35592e+00  5.06262e-01 -5.87084e+02  2.45295e+02  1.20536e+07 -1.29381e+07  1.24297e+03  0.00000e+00 -8.83215e+05 -5.64719e+04 -9.39687e+05  5.06257e-01  1.00000e+00  5.85784e+02  0.00000e+00  1.10540e+02 
 1.04795e-02  9.43408e-03  0.00000e+00  3.47944e+00  1.09298e-04  3.60661e+02  3.60070e+02  2.82712e+00  2.83476e+00  5.16932e-01 -6.36715e+03  3.18740e+02  2.54343e+07 -2.55417e+07  1.40680e+03  2.26711e+06  2.16114e+06 -2.26043e+06 -9.92948e+04  5.16923e-01  1.00000e+00  6.36542e+03  3.59903e+03  2.76929e+02 
