# Code_Saturne plot output (1D profile)
#
# Iteration output: 2793
# Time output:      2.30039e+01
#
#COLUMN_TITLES: Distance | X | Y | Z | diameter_Field2 | temp_Field1 | temp_Field2 | Velocity_Field1[Z] | Velocity_Field2[Z] | vol_f_Field2 | mass_trans_Field1 | Xd_Field2 | BK | COAL | COMP | NUCL | W1 | MT | SMBR | ALPBB | CONDNUM | GAMA | GAMANUC | epsilon_Field1
 4.56474e-03  1.39645e-04  0.00000e+00  3.47944e+00  6.89112e-05  3.59568e+02  3.60051e+02  4.66971e+00  4.68105e+00  4.62850e-02  1.18031e+02  5.05712e+02  1.28692e-04 -9.12106e+05  2.98600e+03  0.00000e+00 -9.09120e+05  4.04007e+05 -5.05114e+05  4.62844e-02  1.00000e+00 -1.18052e+02  0.00000e+00  3.57068e-01 
 4.57812e-03  3.76525e-04  4.25872e-21  3.47944e+00  9.08015e-05  3.59569e+02  3.60051e+02  4.66932e+00  4.68580e+00  4.71289e-02  8.22225e+01  3.83795e+02  2.67439e+00 -5.81908e+05  2.26614e+03  0.00000e+00 -5.79639e+05  2.09764e+05 -3.69875e+05  4.71286e-02  1.00000e+00 -8.22380e+01  0.00000e+00  3.61633e-01 
 4.60371e-03  6.13858e-04  0.00000e+00  3.47944e+00  1.09404e-04  3.59572e+02  3.60051e+02  4.66811e+00  4.68894e+00  4.86958e-02  6.58695e+01  3.18536e+02  2.15102e+02 -4.40220e+05  1.88169e+03  0.00000e+00 -4.38123e+05  1.34983e+05 -3.03140e+05  4.86954e-02  1.00000e+00 -6.58821e+01  0.00000e+00  3.70584e-01 
 4.64138e-03  8.51483e-04  0.00000e+00  3.47944e+00  1.24943e-04  3.59579e+02  3.60051e+02  4.66628e+00  4.69067e+00  5.09672e-02  5.73960e+01  2.78921e+02  2.22928e+03 -3.70938e+05  1.64819e+03  0.00000e+00 -3.67061e+05  9.84017e+04 -2.68659e+05  5.09667e-02  1.00000e+00 -5.74072e+01  0.00000e+00  3.84101e-01 
 4.69084e-03  1.08931e-03  0.00000e+00  3.47944e+00  1.38159e-04  3.59588e+02  3.60051e+02  4.66379e+00  4.69111e+00  5.39634e-02  5.26734e+01  2.52240e+02  9.45611e+03 -3.35240e+05  1.49072e+03  0.00000e+00 -3.24293e+05  7.71326e+04 -2.47160e+05  5.39627e-02  1.00000e+00 -5.26839e+01  0.00000e+00  4.02479e-01 
 4.75174e-03  1.32727e-03  1.05001e-20  3.47944e+00  1.49202e-04  3.59599e+02  3.60051e+02  4.66064e+00  4.69031e+00  5.77250e-02  5.02087e+01  2.33570e+02  2.48575e+04 -3.19778e+05  1.38029e+03  0.00000e+00 -2.93540e+05  6.36450e+04 -2.29895e+05  5.77244e-02  1.00000e+00 -5.02190e+01  0.00000e+00  4.26136e-01 
 4.82366e-03  1.56534e-03  0.00000e+00  3.47944e+00  1.58088e-04  3.59614e+02  3.60051e+02  4.65679e+00  4.68825e+00  6.22964e-02  4.93032e+01  2.20441e+02  4.92016e+04 -3.18921e+05  1.30237e+03  0.00000e+00 -2.68417e+05  5.46559e+04 -2.13761e+05  6.22959e-02  1.00000e+00 -4.93136e+01  0.00000e+00  4.55632e-01 
 4.90611e-03  1.80349e-03  8.81027e-21  3.47944e+00  1.64925e-04  3.59631e+02  3.60051e+02  4.65222e+00  4.68495e+00  6.77302e-02  4.92193e+01  2.11303e+02  8.17320e+04 -3.30022e+05  1.24779e+03  0.00000e+00 -2.47042e+05  4.81052e+04 -1.98937e+05  6.77300e-02  1.00000e+00 -4.92300e+01  0.00000e+00  4.91675e-01 
 4.99859e-03  2.04170e-03  0.00000e+00  3.47944e+00  1.69947e-04  3.59650e+02  3.60051e+02  4.64686e+00  4.68041e+00  7.40770e-02  4.99128e+01  2.05059e+02  1.21624e+05 -3.51841e+05  1.21008e+03  0.00000e+00 -2.29007e+05  4.32855e+04 -1.85721e+05  7.40771e-02  1.00000e+00 -4.99242e+01  0.00000e+00  5.35145e-01 
 5.10055e-03  2.27996e-03  7.58893e-21  3.47944e+00  1.73464e-04  3.59671e+02  3.60051e+02  4.64066e+00  4.67466e+00  8.13846e-02  5.11464e+01  2.00901e+02  1.68740e+05 -3.83945e+05  1.18445e+03  0.00000e+00 -2.14021e+05  3.95544e+04 -1.74466e+05  8.13846e-02  1.00000e+00 -5.11586e+01  0.00000e+00  5.87109e-01 
 5.21143e-03  2.51826e-03  7.09702e-21  3.47944e+00  1.75796e-04  3.59694e+02  3.60051e+02  4.63351e+00  4.66767e+00  8.96921e-02  5.27032e+01  1.98236e+02  2.23651e+05 -4.26428e+05  1.16739e+03  0.00000e+00 -2.01609e+05  3.64934e+04 -1.65115e+05  8.96916e-02  1.00000e+00 -5.27166e+01  0.00000e+00  6.48840e-01 
 5.33068e-03  2.75659e-03  1.33300e-20  3.47944e+00  1.77230e-04  3.59718e+02  3.60051e+02  4.62532e+00  4.65936e+00  9.90254e-02  5.43838e+01  1.96632e+02  2.87377e+05 -4.79718e+05  1.15633e+03  0.00000e+00 -1.91185e+05  3.38326e+04 -1.57352e+05  9.90242e-02  1.00000e+00 -5.43985e+01  0.00000e+00  7.21844e-01 
 5.45775e-03  2.99495e-03  1.25651e-20  3.47944e+00  1.78010e-04  3.59743e+02  3.60051e+02  4.61594e+00  4.64970e+00  1.09394e-01  5.60052e+01  1.95771e+02  3.61124e+05 -5.44451e+05  1.14933e+03  0.00000e+00 -1.82177e+05  3.14019e+04 -1.50775e+05  1.09391e-01  1.00000e+00 -5.60214e+01  0.00000e+00  8.07890e-01 
 5.59212e-03  3.23333e-03  0.00000e+00  3.47944e+00  1.78331e-04  3.59769e+02  3.60051e+02  4.60524e+00  4.63859e+00  1.20785e-01  5.73935e+01  1.95418e+02  4.46075e+05 -6.21334e+05  1.14499e+03  0.00000e+00 -1.74114e+05  2.90936e+04 -1.45020e+05  1.20782e-01  1.00000e+00 -5.74114e+01  0.00000e+00  9.09020e-01 
 5.73326e-03  3.47172e-03  0.00000e+00  3.47944e+00  1.78355e-04  3.59795e+02  3.60051e+02  4.59301e+00  4.62586e+00  1.33159e-01  5.83846e+01  1.95392e+02  5.43229e+05 -7.10996e+05  1.14217e+03  0.00000e+00 -1.66625e+05  2.68430e+04 -1.39782e+05  1.33155e-01  1.00000e+00 -5.84044e+01  0.00000e+00  1.02758e+00 
 5.88069e-03  3.71014e-03 -5.35987e-21  3.47944e+00  1.78211e-04  3.59820e+02  3.60051e+02  4.57904e+00  4.61134e+00  1.46448e-01  5.88340e+01  1.95550e+02  6.53262e+05 -8.13878e+05  1.14000e+03  0.00000e+00 -1.59476e+05  2.46158e+04 -1.34860e+05  1.46444e-01  1.00000e+00 -5.88559e+01  0.00000e+00  1.16621e+00 
 6.03395e-03  3.94857e-03  5.10973e-21  3.47944e+00  1.78004e-04  3.59845e+02  3.60051e+02  4.56311e+00  4.59480e+00  1.60551e-01  5.86233e+01  1.95778e+02  7.76427e+05 -9.30074e+05  1.13775e+03  0.00000e+00 -1.52509e+05  2.24001e+04 -1.30109e+05  1.60547e-01  1.00000e+00 -5.86473e+01  0.00000e+00  1.32787e+00 
 6.19261e-03  4.18701e-03  0.00000e+00  3.47944e+00  1.77817e-04  3.59870e+02  3.60051e+02  4.54495e+00  4.57601e+00  1.75346e-01  5.76720e+01  1.95984e+02  9.12441e+05 -1.05928e+06  1.13480e+03  0.00000e+00 -1.45703e+05  2.01994e+04 -1.25504e+05  1.75340e-01  1.00000e+00 -5.76982e+01  0.00000e+00  1.51578e+00 
 6.35626e-03  4.42546e-03  0.00000e+00  3.47944e+00  1.77717e-04  3.59893e+02  3.60051e+02  4.52429e+00  4.55470e+00  1.90676e-01  5.59424e+01  1.96095e+02  1.06048e+06 -1.20067e+06  1.13068e+03  0.00000e+00 -1.39055e+05  1.80295e+04 -1.21026e+05  1.90671e-01  1.00000e+00 -5.59709e+01  0.00000e+00  1.73343e+00 
 6.52453e-03  4.66392e-03 -8.96437e-21  3.47944e+00  1.77751e-04  3.59914e+02  3.60051e+02  4.50086e+00  4.53061e+00  2.06379e-01  5.34469e+01  1.96057e+02  1.21917e+06 -1.35296e+06  1.12503e+03  0.00000e+00 -1.32665e+05  1.59126e+04 -1.16752e+05  2.06373e-01  1.00000e+00 -5.34776e+01  0.00000e+00  1.98450e+00 
 6.69707e-03  4.90238e-03  1.72236e-20  3.47944e+00  1.77949e-04  3.59934e+02  3.60051e+02  4.47437e+00  4.50347e+00  2.22277e-01  5.02444e+01  1.95839e+02  1.38671e+06 -1.51445e+06  1.11759e+03  0.00000e+00 -1.26629e+05  1.38749e+04 -1.12754e+05  2.22271e-01  1.00000e+00 -5.02774e+01  0.00000e+00  2.27291e+00 
 6.87356e-03  5.14086e-03  8.28595e-21  3.47944e+00  1.78319e-04  3.59953e+02  3.60051e+02  4.44462e+00  4.47306e+00  2.38187e-01  4.64353e+01  1.95434e+02  1.56110e+06 -1.68322e+06  1.10828e+03  0.00000e+00 -1.21008e+05  1.19429e+04 -1.09065e+05  2.38180e-01  1.00000e+00 -4.64705e+01  0.00000e+00  2.60278e+00 
 7.05370e-03  5.37934e-03 -1.59677e-20  3.47944e+00  1.78848e-04  3.59970e+02  3.60051e+02  4.41137e+00  4.43916e+00  2.53956e-01  4.21535e+01  1.94856e+02  1.74035e+06 -1.85749e+06  1.09717e+03  0.00000e+00 -1.16048e+05  1.01396e+04 -1.05909e+05  2.53950e-01  1.00000e+00 -4.21907e+01  0.00000e+00  2.97854e+00 
 7.23722e-03  5.61783e-03  0.00000e+00  3.47944e+00  1.79500e-04  3.59985e+02  3.60051e+02  4.37444e+00  4.40159e+00  2.69413e-01  3.75446e+01  1.94148e+02  1.92296e+06 -2.03570e+06  1.08447e+03  0.00000e+00 -1.11658e+05  8.48329e+03 -1.03175e+05  2.69407e-01  1.00000e+00 -3.75836e+01  0.00000e+00  3.40525e+00 
 7.42387e-03  5.85632e-03  0.00000e+00  3.47944e+00  1.80225e-04  3.59999e+02  3.60051e+02  4.33371e+00  4.36022e+00  2.84470e-01  3.27603e+01  1.93368e+02  2.10787e+06 -2.21725e+06  1.07048e+03  0.00000e+00 -1.08308e+05  6.98368e+03 -1.01324e+05  2.84465e-01  1.00000e+00 -3.28011e+01  0.00000e+00  3.88873e+00 
 7.61342e-03  6.09482e-03  0.00000e+00  3.47944e+00  1.80940e-04  3.60011e+02  3.60051e+02  4.28901e+00  4.31487e+00  2.98978e-01  2.79333e+01  1.92604e+02  2.29560e+06 -2.40218e+06  1.05566e+03  0.00000e+00 -1.05523e+05  5.64493e+03 -9.98784e+04  2.98970e-01  1.00000e+00 -2.79757e+01  0.00000e+00  4.43684e+00 
 7.80566e-03  6.33332e-03  0.00000e+00  3.47944e+00  1.81569e-04  3.60022e+02  3.60052e+02  4.24019e+00  4.26539e+00  3.12961e-01  2.31792e+01  1.91939e+02  2.48692e+06 -2.59240e+06  1.04042e+03  0.00000e+00 -1.04436e+05  4.46108e+03 -9.99746e+04  3.12954e-01  1.00000e+00 -2.32231e+01  0.00000e+00  5.05905e+00 
 8.00039e-03  6.57182e-03  0.00000e+00  3.47944e+00  1.81985e-04  3.60032e+02  3.60052e+02  4.18703e+00  4.21154e+00  3.26296e-01  1.85767e+01  1.91501e+02  2.68563e+06 -2.79089e+06  1.02535e+03  0.00000e+00 -1.04239e+05  3.42321e+03 -1.00815e+05  3.26289e-01  1.00000e+00 -1.86221e+01  0.00000e+00  5.77015e+00 
 8.19744e-03  6.81033e-03  1.31016e-20  3.47944e+00  1.82094e-04  3.60041e+02  3.60052e+02  4.12917e+00  4.15296e+00  3.39084e-01  1.41722e+01  1.91386e+02  2.89514e+06 -3.00262e+06  1.01087e+03  0.00000e+00 -1.06469e+05  2.51373e+03 -1.03955e+05  3.39078e-01  1.00000e+00 -1.42191e+01  0.00000e+00  6.58775e+00 
 8.39664e-03  7.04884e-03  0.00000e+00  3.47944e+00  1.81732e-04  3.60048e+02  3.60052e+02  4.06625e+00  4.08925e+00  3.51235e-01  9.97782e+00  1.91768e+02  3.12412e+06 -3.23531e+06  9.97596e+02  0.00000e+00 -1.10194e+05  1.71457e+03 -1.08479e+05  3.51230e-01  1.00000e+00 -1.00261e+01  0.00000e+00  7.54235e+00 
 8.59784e-03  7.28736e-03  0.00000e+00  3.47944e+00  1.80795e-04  3.60055e+02  3.60052e+02  3.99719e+00  4.01933e+00  3.62928e-01  5.96312e+00  1.92763e+02  3.37963e+06 -3.49868e+06  9.85906e+02  0.00000e+00 -1.18064e+05  1.00031e+03 -1.17064e+05  3.62923e-01  1.00000e+00 -6.01296e+00  0.00000e+00  8.66862e+00 
 8.80092e-03  7.52587e-03  0.00000e+00  3.47944e+00  1.79059e-04  3.60061e+02  3.60053e+02  3.92201e+00  3.94318e+00  3.74087e-01  2.06180e+00  1.94633e+02  3.67974e+06 -3.80969e+06  9.76484e+02  0.00000e+00 -1.28976e+05  3.44395e+02 -1.28632e+05  3.74084e-01  1.00000e+00 -2.11336e+00  0.00000e+00  1.00354e+01 
 9.00573e-03  7.76439e-03 -1.17014e-20  3.47944e+00  1.76409e-04  3.60066e+02  3.60053e+02  3.83700e+00  3.85708e+00  3.84935e-01 -4.06935e+00  1.97558e+02  4.03929e+06 -4.18785e+06  9.69686e+02  0.00000e+00 -1.47594e+05 -6.40022e+02 -1.48234e+05  3.84933e-01  1.00000e+00  3.98154e+00  0.00000e+00  1.17182e+01 
 9.21216e-03  8.00291e-03  0.00000e+00  3.47944e+00  1.72510e-04  3.60071e+02  3.60053e+02  3.74484e+00  3.76368e+00  3.95450e-01 -1.33741e+01  2.02025e+02  4.50038e+06 -4.67477e+06  9.66686e+02  0.00000e+00 -1.73417e+05 -2.12553e+03 -1.75543e+05  3.95451e-01  1.00000e+00  1.32838e+01  0.00000e+00  1.38962e+01 
 9.42012e-03  8.24144e-03  0.00000e+00  3.47944e+00  1.67159e-04  3.60077e+02  3.60054e+02  3.63345e+00  3.65089e+00  4.05888e-01 -2.54405e+01  2.08493e+02  5.10447e+06 -5.32323e+06  9.67873e+02  0.00000e+00 -2.17787e+05 -4.07795e+03 -2.21865e+05  4.05893e-01  1.00000e+00  2.53473e+01  0.00000e+00  1.67744e+01 
 9.62949e-03  8.47996e-03  0.00000e+00  3.47944e+00  1.59737e-04  3.60085e+02  3.60054e+02  3.51388e+00  3.52971e+00  4.16203e-01 -4.44979e+01  2.18183e+02  5.98077e+06 -6.26312e+06  9.76706e+02  0.00000e+00 -2.81367e+05 -7.28992e+03 -2.88657e+05  4.16214e-01  1.00000e+00  4.44009e+01  0.00000e+00  2.09438e+01 
 9.84019e-03  8.71849e-03  0.00000e+00  3.47944e+00  1.49838e-04  3.60098e+02  3.60055e+02  3.35095e+00  3.36498e+00  4.26533e-01 -8.18160e+01  2.32599e+02  7.30821e+06 -7.69959e+06  9.92250e+02  0.00000e+00 -3.90391e+05 -1.39558e+04 -4.04347e+05  4.26551e-01  1.00000e+00  8.17143e+01  0.00000e+00  2.72677e+01 
 1.00521e-02  8.95702e-03  0.00000e+00  3.47944e+00  1.36391e-04  3.60126e+02  3.60055e+02  3.16979e+00  3.18199e+00  4.37297e-01 -1.74892e+02  2.55534e+02  9.67743e+06 -1.02270e+07  1.02325e+03  0.00000e+00 -5.48507e+05 -3.19850e+04 -5.80492e+05  4.37327e-01  1.00000e+00  1.74784e+02  0.00000e+00  3.88167e+01 
 1.02653e-02  9.19555e-03  0.00000e+00  3.47944e+00  1.19139e-04  3.60204e+02  3.60056e+02  2.87002e+00  2.87973e+00  4.48728e-01 -4.93628e+02  2.92541e+02  1.45047e+07 -1.51792e+07  1.05343e+03  0.00000e+00 -6.73414e+05 -1.00759e+05 -7.74173e+05  4.48751e-01  1.00000e+00  4.93512e+02  0.00000e+00  6.41169e+01 
 1.04795e-02  9.43408e-03  0.00000e+00  3.47944e+00  9.99581e-05  3.60553e+02  3.60057e+02  2.41490e+00  2.41994e+00  4.63220e-01 -5.63410e+03  3.48682e+02  2.78210e+07 -2.61569e+07  1.09553e+03  1.23600e+06  2.90118e+06 -2.99017e+06 -8.89827e+04  4.63230e-01  1.00000e+00  5.63398e+03  3.31217e+03  1.60473e+02 
