# Code_Saturne plot output (1D profile)
#
# Iteration output: 4525
# Time output:      2.30007e+01
#
#COLUMN_TITLES: Distance | X | Y | Z | diameter_Field2 | temp_Field1 | temp_Field2 | Velocity_Field1[Z] | Velocity_Field2[Z] | vol_f_Field2 | mass_trans_Field1 | Xd_Field2 | BK | COAL | COMP | NUCL | W1 | MT | SMBR | ALPBB | CONDNUM | GAMA | GAMANUC | epsilon_Field1
 4.56474e-03  1.39645e-04  0.00000e+00  3.47944e+00  1.19509e-04  3.59913e+02  3.60055e+02  4.87289e+00  4.89709e+00  1.23865e-01  5.14226e+01  2.91555e+02  1.44826e+04 -1.36002e+06  1.91365e+03  0.00000e+00 -1.34362e+06  8.07376e+04 -1.26289e+06  1.23863e-01  1.00000e+00 -5.15804e+01  0.00000e+00  7.47660e-01 
 4.57812e-03  3.76525e-04  4.25872e-21  3.47944e+00  1.69050e-04  3.59913e+02  3.60055e+02  4.87161e+00  4.90820e+00  1.24798e-01  3.25012e+01  2.06114e+02  9.50469e+04 -7.55994e+05  1.35512e+03  0.00000e+00 -6.59592e+05  3.58049e+04 -6.23787e+05  1.24796e-01  1.00000e+00 -3.26017e+01  0.00000e+00  7.57286e-01 
 4.60371e-03  6.13858e-04  0.00000e+00  3.47944e+00  1.99515e-04  3.59914e+02  3.60055e+02  4.86937e+00  4.91357e+00  1.26547e-01  2.63677e+01  1.74641e+02  1.46008e+05 -5.79484e+05  1.14950e+03  0.00000e+00 -4.32327e+05  2.42717e+04 -4.08055e+05  1.26546e-01  1.00000e+00 -2.64497e+01  0.00000e+00  7.75848e-01 
 4.64138e-03  8.51483e-04  0.00000e+00  3.47944e+00  2.20272e-04  3.59915e+02  3.60055e+02  4.86636e+00  4.91560e+00  1.29029e-01  2.34526e+01  1.58184e+02  1.74657e+05 -5.02770e+05  1.04183e+03  0.00000e+00 -3.27072e+05  1.91779e+04 -3.07894e+05  1.29028e-01  1.00000e+00 -2.35263e+01  0.00000e+00  8.03679e-01 
 4.69084e-03  1.08931e-03  0.00000e+00  3.47944e+00  2.36005e-04  3.59917e+02  3.60055e+02  4.86235e+00  4.91524e+00  1.32334e-01  2.17597e+01  1.47639e+02  1.94728e+05 -4.63509e+05  9.72664e+02  0.00000e+00 -2.67808e+05  1.61930e+04 -2.51615e+05  1.32332e-01  1.00000e+00 -2.18290e+01  0.00000e+00  8.41156e-01 
 4.75174e-03  1.32727e-03  1.05001e-20  3.47944e+00  2.49101e-04  3.59920e+02  3.60055e+02  4.85729e+00  4.91304e+00  1.36426e-01  2.06186e+01  1.39877e+02  2.11534e+05 -4.42020e+05  9.21558e+02  0.00000e+00 -2.29564e+05  1.41018e+04 -2.15463e+05  1.36423e-01  1.00000e+00 -2.06854e+01  0.00000e+00  8.89031e-01 
 4.82366e-03  1.56534e-03  0.00000e+00  3.47944e+00  2.61006e-04  3.59923e+02  3.60055e+02  4.85110e+00  4.90928e+00  1.41345e-01  1.97377e+01  1.33497e+02  2.26968e+05 -4.30063e+05  8.79380e+02  0.00000e+00 -2.02215e+05  1.24362e+04 -1.89779e+05  1.41342e-01  1.00000e+00 -1.98032e+01  0.00000e+00  9.48158e-01 
 4.90611e-03  1.80349e-03  8.81027e-21  3.47944e+00  2.72640e-04  3.59927e+02  3.60055e+02  4.84369e+00  4.90410e+00  1.47051e-01  1.89578e+01  1.27800e+02  2.41570e+05 -4.23262e+05  8.41580e+02  0.00000e+00 -1.80851e+05  1.09924e+04 -1.69858e+05  1.47047e-01  1.00000e+00 -1.90225e+01  0.00000e+00  1.01964e+00 
 4.99859e-03  2.04170e-03  0.00000e+00  3.47944e+00  2.84626e-04  3.59932e+02  3.60055e+02  4.83493e+00  4.89754e+00  1.53575e-01  1.81942e+01  1.22418e+02  2.55204e+05 -4.19232e+05  8.05721e+02  0.00000e+00 -1.63223e+05  9.67725e+03 -1.53546e+05  1.53570e-01  1.00000e+00 -1.82585e+01  0.00000e+00  1.10464e+00 
 5.10055e-03  2.27996e-03  7.58893e-21  3.47944e+00  2.97370e-04  3.59937e+02  3.60055e+02  4.82469e+00  4.88956e+00  1.60822e-01  1.73882e+01  1.17172e+02  2.67560e+05 -4.16239e+05  7.70555e+02  0.00000e+00 -1.47908e+05  8.45436e+03 -1.39453e+05  1.60819e-01  1.00000e+00 -1.74521e+01  0.00000e+00  1.20474e+00 
 5.21143e-03  2.51826e-03  7.09702e-21  3.47944e+00  3.11142e-04  3.59943e+02  3.60055e+02  4.81283e+00  4.88009e+00  1.68798e-01  1.65160e+01  1.11986e+02  2.78122e+05 -4.13293e+05  7.35712e+02  0.00000e+00 -1.34435e+05  7.31340e+03 -1.27121e+05  1.68796e-01  1.00000e+00 -1.65795e+01  0.00000e+00  1.32119e+00 
 5.33068e-03  2.75659e-03  1.33300e-20  3.47944e+00  3.26071e-04  3.59949e+02  3.60055e+02  4.79919e+00  4.86899e+00  1.77363e-01  1.55585e+01  1.06859e+02  2.86549e+05 -4.09546e+05  7.01117e+02  0.00000e+00 -1.22295e+05  6.25782e+03 -1.16037e+05  1.77361e-01  1.00000e+00 -1.56216e+01  0.00000e+00  1.45565e+00 
 5.45775e-03  2.99495e-03  1.25651e-20  3.47944e+00  3.42171e-04  3.59956e+02  3.60055e+02  4.78363e+00  4.85611e+00  1.86449e-01  1.45222e+01  1.01831e+02  2.92591e+05 -4.04634e+05  6.67154e+02  0.00000e+00 -1.11376e+05  5.29628e+03 -1.06079e+05  1.86445e-01  1.00000e+00 -1.45848e+01  0.00000e+00  1.60963e+00 
 5.59212e-03  3.23333e-03  0.00000e+00  3.47944e+00  3.59321e-04  3.59964e+02  3.60055e+02  4.76600e+00  4.84129e+00  1.95979e-01  1.34184e+01  9.69707e+01  2.96228e+05 -3.98499e+05  6.34187e+02  0.00000e+00 -1.01637e+05  4.43488e+03 -9.72021e+04  1.95975e-01  1.00000e+00 -1.34803e+01  0.00000e+00  1.78468e+00 
 5.73326e-03  3.47172e-03  0.00000e+00  3.47944e+00  3.77261e-04  3.59972e+02  3.60055e+02  4.74620e+00  4.82432e+00  2.05846e-01  1.22676e+01  9.23594e+01  2.97707e+05 -3.91290e+05  6.02707e+02  0.00000e+00 -9.29801e+04  3.67800e+03 -8.93021e+04  2.05840e-01  1.00000e+00 -1.23288e+01  0.00000e+00  1.98249e+00 
 5.88069e-03  3.71014e-03 -5.35987e-21  3.47944e+00  3.95585e-04  3.59980e+02  3.60055e+02  4.72445e+00  4.80513e+00  2.15896e-01  1.10848e+01  8.80814e+01  2.97536e+05 -3.83334e+05  5.73084e+02  0.00000e+00 -8.52243e+04  3.02328e+03 -8.22010e+04  2.15890e-01  1.00000e+00 -1.11453e+01  0.00000e+00  2.20500e+00 
 6.03395e-03  3.94857e-03  5.10973e-21  3.47944e+00  4.13788e-04  3.59988e+02  3.60055e+02  4.70091e+00  4.78201e+00  2.26074e-01  9.84282e+00  8.42068e+01  2.96315e+05 -3.75248e+05  5.46068e+02  0.00000e+00 -7.83868e+04  2.45234e+03 -7.59345e+04  2.26068e-01  1.00000e+00 -9.90236e+00  0.00000e+00  2.45417e+00 
 6.19261e-03  4.18701e-03  0.00000e+00  3.47944e+00  4.31275e-04  3.59997e+02  3.60055e+02  4.67507e+00  4.75538e+00  2.36179e-01  8.61945e+00  8.07926e+01  2.94838e+05 -3.67527e+05  5.21635e+02  0.00000e+00 -7.21672e+04  1.97379e+03 -7.01934e+04  2.36174e-01  1.00000e+00 -8.67818e+00  0.00000e+00  2.73316e+00 
 6.35626e-03  4.42546e-03  0.00000e+00  3.47944e+00  4.47496e-04  3.60007e+02  3.60055e+02  4.64661e+00  4.72579e+00  2.46276e-01  7.42789e+00  7.78641e+01  2.93621e+05 -3.60926e+05  5.00255e+02  0.00000e+00 -6.68051e+04  1.57365e+03 -6.52315e+04  2.46271e-01  1.00000e+00 -7.48611e+00  0.00000e+00  3.04365e+00 
 6.52453e-03  4.66392e-03 -8.96437e-21  3.47944e+00  4.61909e-04  3.60016e+02  3.60055e+02  4.61548e+00  4.69345e+00  2.56236e-01  6.26029e+00  7.54348e+01  2.93324e+05 -3.55936e+05  4.81914e+02  0.00000e+00 -6.21299e+04  1.23670e+03 -6.08932e+04  2.56232e-01  1.00000e+00 -6.31832e+00  0.00000e+00  3.38969e+00 
 6.69707e-03  4.90238e-03  1.72236e-20  3.47944e+00  4.74110e-04  3.60026e+02  3.60055e+02  4.58158e+00  4.65835e+00  2.66046e-01  5.10550e+00  7.34936e+01  2.94335e+05 -3.53004e+05  4.66599e+02  0.00000e+00 -5.82022e+04  9.48389e+02 -5.72539e+04  2.66041e-01  1.00000e+00 -5.16372e+00  0.00000e+00  3.77411e+00 
 6.87356e-03  5.14086e-03  8.28595e-21  3.47944e+00  4.83795e-04  3.60036e+02  3.60055e+02  4.54488e+00  4.62046e+00  2.75620e-01  3.94362e+00  7.20226e+01  2.97071e+05 -3.52460e+05  4.54081e+02  0.00000e+00 -5.49347e+04  6.95355e+02 -5.42394e+04  2.75615e-01  1.00000e+00 -4.00241e+00  0.00000e+00  4.20211e+00 
 7.05370e-03  5.37934e-03 -1.59677e-20  3.47944e+00  4.90854e-04  3.60046e+02  3.60056e+02  4.50519e+00  4.57963e+00  2.84988e-01  2.75367e+00  7.09871e+01  3.01698e+05 -3.54563e+05  4.44172e+02  0.00000e+00 -5.24211e+04  4.65924e+02 -5.19551e+04  2.84983e-01  1.00000e+00 -2.81344e+00  0.00000e+00  4.67776e+00 
 7.23722e-03  5.61783e-03  0.00000e+00  3.47944e+00  4.95223e-04  3.60056e+02  3.60056e+02  4.46251e+00  4.53582e+00  2.94037e-01  1.51043e+00  7.03611e+01  3.08563e+05 -3.59482e+05  4.36549e+02  0.00000e+00 -5.04832e+04  2.50027e+02 -5.02332e+04  2.94033e-01  1.00000e+00 -1.57157e+00  0.00000e+00  5.20977e+00 
 7.42387e-03  5.85632e-03  0.00000e+00  3.47944e+00  4.97031e-04  3.60066e+02  3.60056e+02  4.41645e+00  4.48869e+00  3.02890e-01  1.87555e-01  7.01054e+01  3.17687e+05 -3.67454e+05  4.31006e+02  0.00000e+00 -4.93358e+04  3.85476e+01 -4.92972e+04  3.02884e-01  1.00000e+00 -2.50501e-01  0.00000e+00  5.80414e+00 
 7.61342e-03  6.09482e-03  0.00000e+00  3.47944e+00  4.96353e-04  3.60077e+02  3.60056e+02  4.36711e+00  4.43827e+00  3.11383e-01 -2.90503e+00  7.02014e+01  3.29519e+05 -3.78603e+05  4.27227e+02  0.00000e+00 -4.86567e+04 -4.13454e+02 -4.90701e+04  3.11377e-01  1.00000e+00  2.75836e+00  0.00000e+00  6.47600e+00 
 7.80566e-03  6.33332e-03  0.00000e+00  3.47944e+00  4.93421e-04  3.60088e+02  3.60056e+02  4.31366e+00  4.38381e+00  3.19721e-01 -6.51589e+00  7.06190e+01  3.44050e+05 -3.93282e+05  4.25059e+02  0.00000e+00 -4.88074e+04 -9.34454e+02 -4.97419e+04  3.19715e-01  1.00000e+00  6.36332e+00  0.00000e+00  7.23459e+00 
 8.00039e-03  6.57182e-03  0.00000e+00  3.47944e+00  4.88219e-04  3.60099e+02  3.60056e+02  4.25656e+00  4.32571e+00  3.27696e-01 -1.05978e+01  7.13717e+01  3.62121e+05 -4.11953e+05  4.24322e+02  0.00000e+00 -4.94074e+04 -1.51151e+03 -5.09190e+04  3.27690e-01  1.00000e+00  1.04384e+01  0.00000e+00  8.10737e+00 
 8.19744e-03  6.81033e-03  1.31016e-20  3.47944e+00  4.80931e-04  3.60110e+02  3.60057e+02  4.19392e+00  4.26212e+00  3.35556e-01 -1.53279e+01  7.24536e+01  3.83943e+05 -4.35436e+05  4.24980e+02  0.00000e+00 -5.10680e+04 -2.17633e+03 -5.32444e+04  3.35551e-01  1.00000e+00  1.51603e+01  0.00000e+00  9.11047e+00 
 8.39664e-03  7.04884e-03  0.00000e+00  3.47944e+00  4.71417e-04  3.60123e+02  3.60057e+02  4.12748e+00  4.19471e+00  3.43129e-01 -2.09494e+01  7.39164e+01  4.10995e+05 -4.64944e+05  4.27106e+02  0.00000e+00 -5.35215e+04 -2.97500e+03 -5.64965e+04  3.43124e-01  1.00000e+00  2.07723e+01  0.00000e+00  1.02944e+01 
 8.59784e-03  7.28736e-03  0.00000e+00  3.47944e+00  4.59816e-04  3.60136e+02  3.60057e+02  4.05218e+00  4.11851e+00  3.50662e-01 -2.78295e+01  7.57817e+01  4.44030e+05 -5.02060e+05  4.30311e+02  0.00000e+00 -5.75996e+04 -3.97147e+03 -6.15710e+04  3.50657e-01  1.00000e+00  2.76412e+01  0.00000e+00  1.16954e+01 
 8.80092e-03  7.52587e-03  0.00000e+00  3.47944e+00  4.45825e-04  3.60152e+02  3.60058e+02  3.97435e+00  4.03973e+00  3.57937e-01 -3.65379e+01  7.81604e+01  4.86071e+05 -5.49405e+05  4.35134e+02  0.00000e+00 -6.28990e+04 -5.27515e+03 -6.81742e+04  3.57934e-01  1.00000e+00  3.63361e+01  0.00000e+00  1.34240e+01 
 9.00573e-03  7.76439e-03 -1.17014e-20  3.47944e+00  4.29557e-04  3.60170e+02  3.60058e+02  3.87912e+00  3.94342e+00  3.65321e-01 -4.79795e+01  8.11211e+01  5.38725e+05 -6.10704e+05  4.41443e+02  0.00000e+00 -7.15372e+04 -7.05105e+03 -7.85883e+04  3.65319e-01  1.00000e+00  4.77615e+01  0.00000e+00  1.55409e+01 
 9.21216e-03  8.00291e-03  0.00000e+00  3.47944e+00  4.10367e-04  3.60191e+02  3.60058e+02  3.78682e+00  3.84934e+00  3.72507e-01 -6.37685e+01  8.49151e+01  6.09672e+05 -6.92440e+05  4.50395e+02  0.00000e+00 -8.23174e+04 -9.62828e+03 -9.19456e+04  3.72506e-01  1.00000e+00  6.35304e+01  0.00000e+00  1.83547e+01 
 9.42012e-03  8.24144e-03  0.00000e+00  3.47944e+00  3.88330e-04  3.60219e+02  3.60059e+02  3.66128e+00  3.71927e+00  3.79951e-01 -8.65500e+01  8.97347e+01  7.04832e+05 -8.04277e+05  4.60351e+02  0.00000e+00 -9.89850e+04 -1.35487e+04 -1.12534e+05  3.79951e-01  1.00000e+00  8.62872e+01  0.00000e+00  2.20990e+01 
 9.62949e-03  8.47996e-03  0.00000e+00  3.47944e+00  3.62547e-04  3.60257e+02  3.60059e+02  3.53904e+00  3.59083e+00  3.87471e-01 -1.22298e+02  9.61173e+01  8.44151e+05 -9.64614e+05  4.75443e+02  0.00000e+00 -1.19987e+05 -2.01212e+04 -1.40108e+05  3.87471e-01  1.00000e+00  1.22002e+02  0.00000e+00  2.76504e+01 
 9.84019e-03  8.71849e-03  0.00000e+00  3.47944e+00  3.33088e-04  3.60313e+02  3.60060e+02  3.34750e+00  3.39388e+00  3.95201e-01 -1.83423e+02  1.04619e+02  1.05002e+06 -1.20468e+06  4.90084e+02  0.00000e+00 -1.54165e+05 -3.22239e+04 -1.86389e+05  3.95198e-01  1.00000e+00  1.83083e+02  0.00000e+00  3.58526e+01 
 1.00521e-02  8.95702e-03  0.00000e+00  3.47944e+00  2.98023e-04  3.60406e+02  3.60060e+02  3.16785e+00  3.20899e+00  4.03064e-01 -3.05678e+02  1.16930e+02  1.41152e+06 -1.59539e+06  5.12846e+02  0.00000e+00 -1.83354e+05 -5.88815e+04 -2.42235e+05  4.03056e-01  1.00000e+00  3.05274e+02  0.00000e+00  5.12663e+01 
 1.02653e-02  9.19555e-03  0.00000e+00  3.47944e+00  2.58687e-04  3.60596e+02  3.60061e+02  2.82223e+00  2.85802e+00  4.12023e-01 -6.02875e+02  1.34713e+02  2.09781e+06 -2.23891e+06  5.22692e+02  0.00000e+00 -1.40581e+05 -1.30945e+05 -2.71525e+05  4.12007e-01  1.00000e+00  6.02375e+02  0.00000e+00  8.48383e+01 
 1.04795e-02  9.43408e-03  0.00000e+00  3.47944e+00  2.20704e-04  3.61149e+02  3.60062e+02  2.34472e+00  2.36852e+00  4.23573e-01 -4.84711e+03  1.57899e+02  3.73709e+06 -2.81530e+06  5.24329e+02  1.08355e+06  2.00587e+06 -2.00308e+06  2.78531e+03  4.23557e-01  1.00000e+00  4.84647e+03  3.22679e+03  2.14639e+02 
