# Code_Saturne plot output (1D profile)
#
# Iteration output: 4913
# Time output:      2.30009e+01
#
#COLUMN_TITLES: Distance | X | Y | Z | diameter_Field2 | temp_Field1 | temp_Field2 | Velocity_Field1[Z] | Velocity_Field2[Z] | vol_f_Field2 | mass_trans_Field1 | Xd_Field2 | BK | COAL | COMP | NUCL | W1 | MT | SMBR | ALPBB | CONDNUM | GAMA | GAMANUC | epsilon_Field1
 4.56474e-03  1.39645e-04  0.00000e+00  3.47944e+00  3.52891e-04  3.60052e+02  3.60058e+02  5.38194e+00  5.46432e+00  2.55475e-01  4.09680e+00  9.87164e+01  5.56919e+05 -7.98232e+05  7.78831e+02  0.00000e+00 -2.40535e+05  7.47299e+02 -2.39788e+05  2.55477e-01  1.00000e+00 -4.01399e+00  0.00000e+00  1.29079e+00 
 4.57812e-03  3.76525e-04  4.25872e-21  3.47944e+00  3.61803e-04  3.60052e+02  3.60058e+02  5.38049e+00  5.46535e+00  2.56465e-01  3.93372e+00  9.62848e+01  5.49680e+05 -7.67654e+05  7.59673e+02  0.00000e+00 -2.17214e+05  6.97002e+02 -2.16517e+05  2.56467e-01  1.00000e+00 -3.85324e+00  0.00000e+00  1.30518e+00 
 4.60371e-03  6.13858e-04  0.00000e+00  3.47944e+00  3.67421e-04  3.60053e+02  3.60058e+02  5.37758e+00  5.46373e+00  2.57992e-01  3.78822e+00  9.48126e+01  5.49605e+05 -7.54748e+05  7.48002e+02  0.00000e+00 -2.04395e+05  6.56707e+02 -2.03738e+05  2.57994e-01  1.00000e+00 -3.70879e+00  0.00000e+00  1.33324e+00 
 4.64138e-03  8.51483e-04  0.00000e+00  3.47944e+00  3.72013e-04  3.60054e+02  3.60058e+02  5.37325e+00  5.46020e+00  2.60197e-01  3.62609e+00  9.36421e+01  5.53655e+05 -7.49875e+05  7.38555e+02  0.00000e+00 -1.95482e+05  6.15078e+02 -1.94867e+05  2.60198e-01  1.00000e+00 -3.54715e+00  0.00000e+00  1.37541e+00 
 4.69084e-03  1.08931e-03  0.00000e+00  3.47944e+00  3.76674e-04  3.60055e+02  3.60058e+02  5.36738e+00  5.45497e+00  2.63072e-01  3.43148e+00  9.24834e+01  5.60201e+05 -7.48457e+05  7.29070e+02  0.00000e+00 -1.87526e+05  5.67907e+02 -1.86958e+05  2.63073e-01  1.00000e+00 -3.35279e+00  0.00000e+00  1.43220e+00 
 4.75174e-03  1.32727e-03  1.05001e-20  3.47944e+00  3.81833e-04  3.60056e+02  3.60058e+02  5.35992e+00  5.44812e+00  2.66580e-01  3.19906e+00  9.12338e+01  5.68374e+05 -7.48515e+05  7.18744e+02  0.00000e+00 -1.79423e+05  5.14566e+02 -1.78908e+05  2.66580e-01  1.00000e+00 -3.12054e+00  0.00000e+00  1.50436e+00 
 4.82366e-03  1.56534e-03  0.00000e+00  3.47944e+00  3.87686e-04  3.60058e+02  3.60058e+02  5.35080e+00  5.43966e+00  2.70702e-01  2.92785e+00  8.98565e+01  5.77471e+05 -7.49000e+05  7.07290e+02  0.00000e+00 -1.70822e+05  4.55728e+02 -1.70366e+05  2.70702e-01  1.00000e+00 -2.84946e+00  0.00000e+00  1.59271e+00 
 4.90611e-03  1.80349e-03  8.81027e-21  3.47944e+00  3.94269e-04  3.60060e+02  3.60058e+02  5.33996e+00  5.42952e+00  2.75374e-01  2.61933e+00  8.83562e+01  5.87002e+05 -7.49311e+05  6.94734e+02  0.00000e+00 -1.61614e+05  3.92844e+02 -1.61221e+05  2.75375e-01  1.00000e+00 -2.54110e+00  0.00000e+00  1.69824e+00 
 4.99859e-03  2.04170e-03  0.00000e+00  3.47944e+00  4.01553e-04  3.60062e+02  3.60058e+02  5.32731e+00  5.41764e+00  2.80555e-01  2.27665e+00  8.67537e+01  5.96520e+05 -7.49107e+05  6.81239e+02  0.00000e+00 -1.51906e+05  3.27566e+02 -1.51578e+05  2.80555e-01  1.00000e+00 -2.19859e+00  0.00000e+00  1.82191e+00 
 5.10055e-03  2.27996e-03  7.58893e-21  3.47944e+00  4.09417e-04  3.60065e+02  3.60057e+02  5.31285e+00  5.40399e+00  2.86162e-01  1.90411e+00  8.50872e+01  6.05785e+05 -7.48268e+05  6.67051e+02  0.00000e+00 -1.41816e+05  2.61635e+02 -1.41554e+05  2.86163e-01  1.00000e+00 -1.82624e+00  0.00000e+00  1.96483e+00 
 5.21143e-03  2.51826e-03  7.09702e-21  3.47944e+00  4.17698e-04  3.60067e+02  3.60057e+02  5.29662e+00  5.38827e+00  2.92146e-01  1.50479e+00  8.34003e+01  6.14666e+05 -7.46906e+05  6.52582e+02  0.00000e+00 -1.31588e+05  1.96309e+02 -1.31392e+05  2.92148e-01  1.00000e+00 -1.42720e+00  0.00000e+00  2.12817e+00 
 5.33068e-03  2.75659e-03  1.33300e-20  3.47944e+00  4.26159e-04  3.60070e+02  3.60058e+02  5.27855e+00  5.37012e+00  2.98413e-01  1.08598e+00  8.17447e+01  6.23271e+05 -7.45279e+05  6.38170e+02  0.00000e+00 -1.21369e+05  1.33135e+02 -1.21236e+05  2.98414e-01  1.00000e+00 -1.00870e+00  0.00000e+00  2.31316e+00 
 5.45775e-03  2.99495e-03  1.25651e-20  3.47944e+00  4.34555e-04  3.60073e+02  3.60058e+02  5.25849e+00  5.34952e+00  3.04978e-01  6.54046e-01  8.01654e+01  6.31685e+05 -7.43934e+05  6.24200e+02  0.00000e+00 -1.11624e+05  7.30779e+01 -1.11551e+05  3.04979e-01  1.00000e+00 -5.77002e-01  0.00000e+00  2.52080e+00 
 5.59212e-03  3.23333e-03  0.00000e+00  3.47944e+00  4.42587e-04  3.60076e+02  3.60058e+02  5.23635e+00  5.32655e+00  3.11725e-01  3.91390e-01  7.87108e+01  6.40379e+05 -7.43348e+05  6.10928e+02  0.00000e+00 -1.02357e+05  2.67878e+01 -1.02331e+05  3.11726e-01  1.00000e+00 -2.20183e-01  0.00000e+00  2.75283e+00 
 5.73326e-03  3.47172e-03  0.00000e+00  3.47944e+00  4.49983e-04  3.60079e+02  3.60058e+02  5.21209e+00  5.30126e+00  3.18635e-01 -6.20011e-01  7.74171e+01  6.49678e+05 -7.44144e+05  5.98712e+02  0.00000e+00 -9.38670e+04 -9.26692e+01 -9.39597e+04  3.18637e-01  1.00000e+00  7.91594e-01  0.00000e+00  3.01019e+00 
 5.88069e-03  3.71014e-03 -5.35987e-21  3.47944e+00  4.56452e-04  3.60082e+02  3.60058e+02  5.18564e+00  5.27367e+00  3.25563e-01 -1.64794e+00  7.63201e+01  6.60316e+05 -7.46860e+05  5.87728e+02  0.00000e+00 -8.59570e+04 -2.05616e+02 -8.61626e+04  3.25566e-01  1.00000e+00  1.82040e+00  0.00000e+00  3.29554e+00 
 6.03395e-03  3.94857e-03  5.10973e-21  3.47944e+00  4.61790e-04  3.60085e+02  3.60058e+02  5.15696e+00  5.24380e+00  3.32500e-01 -2.69710e+00  7.54380e+01  6.72624e+05 -7.52080e+05  5.78287e+02  0.00000e+00 -7.88777e+04 -3.13850e+02 -7.91916e+04  3.32505e-01  1.00000e+00  2.87102e+00  0.00000e+00  3.60997e+00 
 6.19261e-03  4.18701e-03  0.00000e+00  3.47944e+00  4.65817e-04  3.60088e+02  3.60058e+02  5.12602e+00  5.21161e+00  3.39365e-01 -3.77324e+00  7.47861e+01  6.87244e+05 -7.60324e+05  5.70359e+02  0.00000e+00 -7.25096e+04 -4.19332e+02 -7.29289e+04  3.39370e-01  1.00000e+00  3.94927e+00  0.00000e+00  3.95684e+00 
 6.35626e-03  4.42546e-03  0.00000e+00  3.47944e+00  4.68463e-04  3.60091e+02  3.60058e+02  5.09270e+00  5.17708e+00  3.46182e-01 -4.88660e+00  7.43640e+01  7.04439e+05 -7.72054e+05  5.64026e+02  0.00000e+00 -6.70513e+04 -5.24279e+02 -6.75756e+04  3.46188e-01  1.00000e+00  5.06545e+00  0.00000e+00  4.33857e+00 
 6.52453e-03  4.66392e-03 -8.96437e-21  3.47944e+00  4.69664e-04  3.60094e+02  3.60058e+02  5.05699e+00  5.14017e+00  3.52895e-01 -6.04682e+00  7.41740e+01  7.24740e+05 -7.87691e+05  5.59186e+02  0.00000e+00 -6.23914e+04 -6.30852e+02 -6.30222e+04  3.52901e-01  1.00000e+00  6.22922e+00  0.00000e+00  4.75945e+00 
 6.69707e-03  4.90238e-03  1.72236e-20  3.47944e+00  4.69463e-04  3.60096e+02  3.60058e+02  5.01876e+00  5.10075e+00  3.59513e-01 -7.26827e+00  7.42060e+01  7.48363e+05 -8.07511e+05  5.55783e+02  0.00000e+00 -5.85918e+04 -7.41409e+02 -5.93332e+04  3.59520e-01  1.00000e+00  7.45498e+00  0.00000e+00  5.22310e+00 
 6.87356e-03  5.14086e-03  8.28595e-21  3.47944e+00  4.67861e-04  3.60099e+02  3.60058e+02  4.97789e+00  5.05871e+00  3.65976e-01 -8.56476e+00  7.44604e+01  7.75918e+05 -8.31938e+05  5.53726e+02  0.00000e+00 -5.54661e+04 -8.58406e+02 -5.63245e+04  3.65984e-01  1.00000e+00  8.75652e+00  0.00000e+00  5.73608e+00 
 7.05370e-03  5.37934e-03 -1.59677e-20  3.47944e+00  4.64969e-04  3.60102e+02  3.60059e+02  4.93421e+00  5.01391e+00  3.72334e-01 -9.95741e+00  7.49238e+01  8.07566e+05 -8.61283e+05  5.52910e+02  0.00000e+00 -5.31643e+04 -9.84597e+02 -5.41489e+04  3.72341e-01  1.00000e+00  1.01550e+01  0.00000e+00  6.30362e+00 
 7.23722e-03  5.61783e-03  0.00000e+00  3.47944e+00  4.60780e-04  3.60105e+02  3.60059e+02  4.88762e+00  4.96619e+00  3.78509e-01 -1.14690e+01  7.56053e+01  8.44247e+05 -8.96222e+05  5.53273e+02  0.00000e+00 -5.14223e+04 -1.12347e+03 -5.25458e+04  3.78516e-01  1.00000e+00  1.16733e+01  0.00000e+00  6.93660e+00 
 7.42387e-03  5.85632e-03  0.00000e+00  3.47944e+00  4.55431e-04  3.60108e+02  3.60059e+02  4.83772e+00  4.91519e+00  3.84599e-01 -1.31348e+01  7.64936e+01  8.86160e+05 -9.37312e+05  5.54751e+02  0.00000e+00 -5.05975e+04 -1.27905e+03 -5.18766e+04  3.84606e-01  1.00000e+00  1.33468e+01  0.00000e+00  7.64266e+00 
 7.61342e-03  6.09482e-03  0.00000e+00  3.47944e+00  4.48857e-04  3.60110e+02  3.60059e+02  4.78460e+00  4.86090e+00  3.90502e-01 -1.49975e+01  7.76144e+01  9.34898e+05 -9.85758e+05  5.57302e+02  0.00000e+00 -5.03020e+04 -1.45738e+03 -5.17594e+04  3.90509e-01  1.00000e+00  1.52180e+01  0.00000e+00  8.44083e+00 
 7.80566e-03  6.33332e-03  0.00000e+00  3.47944e+00  4.41191e-04  3.60113e+02  3.60059e+02  4.72708e+00  4.80218e+00  3.96360e-01 -1.71219e+01  7.89635e+01  9.90819e+05 -1.04261e+06  5.60898e+02  0.00000e+00 -5.12299e+04 -1.66566e+03 -5.28955e+04  3.96367e-01  1.00000e+00  1.73521e+01  0.00000e+00  9.34228e+00 
 8.00039e-03  6.57182e-03  0.00000e+00  3.47944e+00  4.32240e-04  3.60117e+02  3.60060e+02  4.66641e+00  4.74003e+00  4.01986e-01 -1.95953e+01  8.05990e+01  1.05700e+06 -1.11027e+06  5.65829e+02  0.00000e+00 -5.27042e+04 -1.91639e+03 -5.46206e+04  4.01992e-01  1.00000e+00  1.98365e+01  0.00000e+00  1.03822e+01 
 8.19744e-03  6.81033e-03  1.31016e-20  3.47944e+00  4.22149e-04  3.60120e+02  3.60060e+02  4.60113e+00  4.67254e+00  4.07581e-01 -2.25352e+01  8.25262e+01  1.13470e+06 -1.19072e+06  5.71826e+02  0.00000e+00 -5.54555e+04 -2.22331e+03 -5.76788e+04  4.07587e-01  1.00000e+00  2.27888e+01  0.00000e+00  1.15902e+01 
 8.39664e-03  7.04884e-03  0.00000e+00  3.47944e+00  4.10695e-04  3.60124e+02  3.60060e+02  4.53138e+00  4.59944e+00  4.13052e-01 -2.61170e+01  8.48284e+01  1.22888e+06 -1.28824e+06  5.79136e+02  0.00000e+00 -5.87842e+04 -2.61088e+03 -6.13951e+04  4.13058e-01  1.00000e+00  2.63846e+01  0.00000e+00  1.30368e+01 
 8.59784e-03  7.28736e-03  0.00000e+00  3.47944e+00  3.98080e-04  3.60129e+02  3.60061e+02  4.45125e+00  4.51564e+00  4.18609e-01 -3.06455e+01  8.75171e+01  1.34130e+06 -1.40620e+06  5.87234e+02  0.00000e+00 -6.43125e+04 -3.11568e+03 -6.74282e+04  4.18615e-01  1.00000e+00  3.09292e+01  0.00000e+00  1.47616e+01 
 8.80092e-03  7.52587e-03  0.00000e+00  3.47944e+00  3.83841e-04  3.60135e+02  3.60061e+02  4.36865e+00  4.42915e+00  4.24025e-01 -3.65966e+01  9.07644e+01  1.48218e+06 -1.55383e+06  5.97322e+02  0.00000e+00 -7.10566e+04 -3.80576e+03 -7.48623e+04  4.24032e-01  1.00000e+00  3.68995e+01  0.00000e+00  1.69019e+01 
 9.00573e-03  7.76439e-03 -1.17014e-20  3.47944e+00  3.68182e-04  3.60143e+02  3.60061e+02  4.26722e+00  4.32359e+00  4.29589e-01 -4.47205e+01  9.46256e+01  1.65637e+06 -1.73966e+06  6.08909e+02  0.00000e+00 -8.26858e+04 -4.78087e+03 -8.74667e+04  4.29598e-01  1.00000e+00  4.50459e+01  0.00000e+00  1.95403e+01 
 9.21216e-03  8.00291e-03  0.00000e+00  3.47944e+00  3.50270e-04  3.60153e+02  3.60062e+02  4.16863e+00  4.22059e+00  4.35108e-01 -5.64514e+01  9.94654e+01  1.88948e+06 -1.98670e+06  6.23776e+02  0.00000e+00 -9.65911e+04 -6.25682e+03 -1.02848e+05  4.35119e-01  1.00000e+00  5.68051e+01  0.00000e+00  2.30661e+01 
 9.42012e-03  8.24144e-03  0.00000e+00  3.47944e+00  3.30396e-04  3.60168e+02  3.60062e+02  4.02710e+00  4.07374e+00  4.40821e-01 -7.42859e+01  1.05450e+02  2.19556e+06 -2.31925e+06  6.41504e+02  0.00000e+00 -1.23047e+05 -8.60681e+03 -1.31654e+05  4.40835e-01  1.00000e+00  7.46743e+01  0.00000e+00  2.76529e+01 
 9.62949e-03  8.47996e-03  0.00000e+00  3.47944e+00  3.07041e-04  3.60189e+02  3.60063e+02  3.90188e+00  3.94358e+00  4.46591e-01 -1.03987e+02  1.13472e+02  2.64873e+06 -2.80878e+06  6.65878e+02  0.00000e+00 -1.59383e+05 -1.27836e+04 -1.72166e+05  4.46610e-01  1.00000e+00  1.04422e+02  0.00000e+00  3.44571e+01 
 9.84019e-03  8.71849e-03  0.00000e+00  3.47944e+00  2.80273e-04  3.60224e+02  3.60064e+02  3.69316e+00  3.72978e+00  4.52578e-01 -1.58506e+02  1.24311e+02  3.33123e+06 -3.56132e+06  6.92132e+02  0.00000e+00 -2.29401e+05 -2.10435e+04 -2.50445e+05  4.52604e-01  1.00000e+00  1.59004e+02  0.00000e+00  4.46014e+01 
 1.00521e-02  8.95702e-03  0.00000e+00  3.47944e+00  2.46973e-04  3.60288e+02  3.60064e+02  3.50461e+00  3.53649e+00  4.58812e-01 -2.79163e+02  1.41074e+02  4.59208e+06 -4.92582e+06  7.37573e+02  0.00000e+00 -3.33003e+05 -4.14506e+04 -3.74454e+05  4.58836e-01  1.00000e+00  2.79760e+02  0.00000e+00  6.36692e+01 
 1.02653e-02  9.19555e-03  0.00000e+00  3.47944e+00  2.06949e-04  3.60433e+02  3.60066e+02  3.13122e+00  3.15797e+00  4.65747e-01 -6.21966e+02  1.68361e+02  7.21884e+06 -7.70975e+06  7.81556e+02  0.00000e+00 -4.90131e+05 -1.08469e+05 -5.98600e+05  4.65770e-01  1.00000e+00  6.22725e+02  0.00000e+00  1.05080e+02 
 1.04795e-02  9.43408e-03  0.00000e+00  3.47944e+00  1.59725e-04  3.60920e+02  3.60067e+02  2.62558e+00  2.64129e+00  4.75618e-01 -5.64464e+03  2.18142e+02  1.50783e+07 -1.42173e+07  8.74406e+02  1.39869e+06  2.26062e+06 -2.29376e+06 -3.31434e+04  4.75639e-01  1.00000e+00  5.64570e+03  3.42185e+03  2.64679e+02 
