# Code_Saturne plot output (1D profile)
#
# Iteration output: 12212
# Time output:      2.30000e+01
#
#COLUMN_TITLES: Distance | X | Y | Z | diameter_Field2 | temp_Field1 | temp_Field2 | Velocity_Field1[Z] | Velocity_Field2[Z] | vol_f_Field2 | mass_trans_Field1 | Xd_Field2 | BK | COAL | COMP | NUCL | W1 | MT | SMBR | ALPBB | CONDNUM | GAMA | GAMANUC | epsilon_Field1
 4.56474e-03  1.39645e-04  0.00000e+00  3.47944e+00  7.71088e-04  3.60303e+02  3.60132e+02  8.62798e+00  8.77586e+00  6.73856e-01 -3.42781e+01  4.50181e+01  2.65213e+05 -2.63579e+05  1.29900e+03  0.00000e+00  2.93334e+03 -7.53257e+02  2.18008e+03  6.73862e-01  1.00000e+00  3.42728e+01  0.00000e+00  1.00186e+01 
 4.57812e-03  3.76525e-04  4.25872e-21  3.47944e+00  7.69576e-04  3.60303e+02  3.60132e+02  8.62694e+00  8.77507e+00  6.73925e-01 -3.43455e+01  4.51065e+01  2.66443e+05 -2.64927e+05  1.30152e+03  0.00000e+00  2.81771e+03 -7.56144e+02  2.06156e+03  6.73931e-01  1.00000e+00  3.43402e+01  0.00000e+00  1.00660e+01 
 4.60371e-03  6.13858e-04  0.00000e+00  3.47944e+00  7.66730e-04  3.60302e+02  3.60132e+02  8.62238e+00  8.76997e+00  6.74070e-01 -3.44235e+01  4.52740e+01  2.68796e+05 -2.67460e+05  1.30579e+03  0.00000e+00  2.64140e+03 -7.60510e+02  1.88089e+03  6.74076e-01  1.00000e+00  3.44182e+01  0.00000e+00  1.01589e+01 
 4.64138e-03  8.51483e-04  0.00000e+00  3.47944e+00  7.62583e-04  3.60302e+02  3.60131e+02  8.61614e+00  8.76277e+00  6.74294e-01 -3.45266e+01  4.55202e+01  2.72283e+05 -2.71193e+05  1.31210e+03  0.00000e+00  2.40178e+03 -7.66681e+02  1.63510e+03  6.74300e-01  1.00000e+00  3.45212e+01  0.00000e+00  1.02981e+01 
 4.69084e-03  1.08931e-03  0.00000e+00  3.47944e+00  7.57159e-04  3.60301e+02  3.60131e+02  8.60752e+00  8.75285e+00  6.74593e-01 -3.46602e+01  4.58463e+01  2.76951e+05 -2.76169e+05  1.32037e+03  0.00000e+00  2.10248e+03 -7.74818e+02  1.32766e+03  6.74599e-01  1.00000e+00  3.46548e+01  0.00000e+00  1.04855e+01 
 4.75174e-03  1.32727e-03  1.05001e-20  3.47944e+00  7.50527e-04  3.60300e+02  3.60132e+02  8.59682e+00  8.74057e+00  6.74983e-01 -3.48227e+01  4.62514e+01  2.82816e+05 -2.82409e+05  1.33063e+03  0.00000e+00  1.73783e+03 -7.84876e+02  9.52950e+02  6.74988e-01  1.00000e+00  3.48172e+01  0.00000e+00  1.07233e+01 
 4.82366e-03  1.56534e-03  0.00000e+00  3.47944e+00  7.42738e-04  3.60299e+02  3.60132e+02  8.58387e+00  8.72574e+00  6.75451e-01 -3.50140e+01  4.67365e+01  2.89942e+05 -2.89971e+05  1.34285e+03  0.00000e+00  1.31468e+03 -7.96911e+02  5.17764e+02  6.75456e-01  1.00000e+00  3.50085e+01  0.00000e+00  1.10140e+01 
 4.90611e-03  1.80349e-03  8.81027e-21  3.47944e+00  7.33873e-04  3.60298e+02  3.60132e+02  8.56871e+00  8.70842e+00  6.76020e-01 -3.52322e+01  4.73011e+01  2.98365e+05 -2.98900e+05  1.35701e+03  0.00000e+00  8.22532e+02 -8.10880e+02  1.16526e+01  6.76025e-01  1.00000e+00  3.52265e+01  0.00000e+00  1.13611e+01 
 4.99859e-03  2.04170e-03  0.00000e+00  3.47944e+00  7.23983e-04  3.60297e+02  3.60132e+02  8.55128e+00  8.68860e+00  6.76623e-01 -3.54771e+01  4.79474e+01  3.08228e+05 -3.09285e+05  1.37312e+03  0.00000e+00  3.15985e+02 -8.26932e+02 -5.10947e+02  6.76629e-01  1.00000e+00  3.54713e+01  0.00000e+00  1.17679e+01 
 5.10055e-03  2.27996e-03  7.58893e-21  3.47944e+00  7.13174e-04  3.60295e+02  3.60132e+02  8.53146e+00  8.66615e+00  6.77377e-01 -3.57458e+01  4.86742e+01  3.19499e+05 -3.21201e+05  1.39087e+03  0.00000e+00 -3.10785e+02 -8.44882e+02 -1.15567e+03  6.77383e-01  1.00000e+00  3.57399e+01  0.00000e+00  1.22402e+01 
 5.21143e-03  2.51826e-03  7.09702e-21  3.47944e+00  7.01503e-04  3.60294e+02  3.60132e+02  8.50921e+00  8.64106e+00  6.78163e-01 -3.60387e+01  4.94841e+01  3.32395e+05 -3.34756e+05  1.41059e+03  0.00000e+00 -9.50201e+02 -8.64977e+02 -1.81518e+03  6.78168e-01  1.00000e+00  3.60327e+01  0.00000e+00  1.27817e+01 
 5.33068e-03  2.75659e-03  1.33300e-20  3.47944e+00  6.89087e-04  3.60292e+02  3.60132e+02  8.48447e+00  8.61330e+00  6.79082e-01 -3.63516e+01  5.03760e+01  3.46918e+05 -3.50028e+05  1.43209e+03  0.00000e+00 -1.67763e+03 -8.87007e+02 -2.56463e+03  6.79087e-01  1.00000e+00  3.63454e+01  0.00000e+00  1.34008e+01 
 5.45775e-03  2.99495e-03  1.25651e-20  3.47944e+00  6.75979e-04  3.60290e+02  3.60132e+02  8.45702e+00  8.58266e+00  6.80050e-01 -3.66861e+01  5.13530e+01  3.63289e+05 -3.67188e+05  1.45544e+03  0.00000e+00 -2.44379e+03 -9.11233e+02 -3.35502e+03  6.80052e-01  1.00000e+00  3.66797e+01  0.00000e+00  1.41022e+01 
 5.59212e-03  3.23333e-03  0.00000e+00  3.47944e+00  6.62305e-04  3.60288e+02  3.60133e+02  8.42689e+00  8.54919e+00  6.81165e-01 -3.70347e+01  5.24135e+01  3.81522e+05 -3.86311e+05  1.48048e+03  0.00000e+00 -3.30881e+03 -9.37350e+02 -4.24616e+03  6.81165e-01  1.00000e+00  3.70281e+01  0.00000e+00  1.48966e+01 
 5.73326e-03  3.47172e-03  0.00000e+00  3.47944e+00  6.48100e-04  3.60285e+02  3.60133e+02  8.39376e+00  8.51259e+00  6.82311e-01 -3.74025e+01  5.35626e+01  4.01921e+05 -4.07647e+05  1.50728e+03  0.00000e+00 -4.21812e+03 -9.65788e+02 -5.18391e+03  6.82310e-01  1.00000e+00  3.73958e+01  0.00000e+00  1.57897e+01 
 5.88069e-03  3.71014e-03 -5.35987e-21  3.47944e+00  6.33503e-04  3.60283e+02  3.60133e+02  8.35776e+00  8.47301e+00  6.83607e-01 -3.77788e+01  5.47971e+01  4.24492e+05 -4.31257e+05  1.53574e+03  0.00000e+00 -5.22913e+03 -9.96092e+02 -6.22522e+03  6.83606e-01  1.00000e+00  3.77719e+01  0.00000e+00  1.67956e+01 
 6.03395e-03  3.94857e-03  5.10973e-21  3.47944e+00  6.18513e-04  3.60281e+02  3.60133e+02  8.31831e+00  8.42989e+00  6.84907e-01 -3.81735e+01  5.61254e+01  4.49660e+05 -4.57505e+05  1.56591e+03  0.00000e+00 -6.27952e+03 -1.02893e+03 -7.30846e+03  6.84908e-01  1.00000e+00  3.81663e+01  0.00000e+00  1.79220e+01 
 6.19261e-03  4.18701e-03  0.00000e+00  3.47944e+00  6.03290e-04  3.60278e+02  3.60134e+02  8.27577e+00  8.38360e+00  6.86388e-01 -3.85710e+01  5.75422e+01  4.77361e+05 -4.86422e+05  1.59776e+03  0.00000e+00 -7.46376e+03 -1.06358e+03 -8.52735e+03  6.86390e-01  1.00000e+00  3.85636e+01  0.00000e+00  1.91877e+01 
 6.35626e-03  4.42546e-03  0.00000e+00  3.47944e+00  5.87778e-04  3.60275e+02  3.60134e+02  8.22923e+00  8.33324e+00  6.87799e-01 -3.89903e+01  5.90612e+01  5.08317e+05 -5.18535e+05  1.63124e+03  0.00000e+00 -8.58763e+03 -1.10125e+03 -9.68888e+03  6.87803e-01  1.00000e+00  3.89826e+01  0.00000e+00  2.06029e+01 
 6.52453e-03  4.66392e-03 -8.96437e-21  3.47944e+00  5.72167e-04  3.60273e+02  3.60135e+02  8.17943e+00  8.27958e+00  6.89444e-01 -3.94093e+01  6.06732e+01  5.42230e+05 -5.53871e+05  1.66657e+03  0.00000e+00 -9.97434e+03 -1.14073e+03 -1.11151e+04  6.89450e-01  1.00000e+00  3.94013e+01  0.00000e+00  2.21921e+01 
 6.69707e-03  4.90238e-03  1.72236e-20  3.47944e+00  5.56341e-04  3.60270e+02  3.60135e+02  8.12476e+00  8.22101e+00  6.91021e-01 -3.98583e+01  6.23997e+01  5.80127e+05 -5.93251e+05  1.70356e+03  0.00000e+00 -1.14203e+04 -1.18384e+03 -1.26041e+04  6.91027e-01  1.00000e+00  3.98499e+01  0.00000e+00  2.39685e+01 
 6.87356e-03  5.14086e-03  8.28595e-21  3.47944e+00  5.40498e-04  3.60267e+02  3.60136e+02  8.06690e+00  8.15921e+00  6.92773e-01 -4.03117e+01  6.42294e+01  6.21845e+05 -6.36555e+05  1.74262e+03  0.00000e+00 -1.29677e+04 -1.22929e+03 -1.41970e+04  6.92781e-01  1.00000e+00  4.03029e+01  0.00000e+00  2.59684e+01 
 7.05370e-03  5.37934e-03 -1.59677e-20  3.47944e+00  5.24487e-04  3.60264e+02  3.60136e+02  8.00269e+00  8.09101e+00  6.94546e-01 -4.08124e+01  6.61909e+01  6.68409e+05 -6.85138e+05  1.78279e+03  0.00000e+00 -1.49457e+04 -1.27929e+03 -1.62250e+04  6.94552e-01  1.00000e+00  4.08033e+01  0.00000e+00  2.82110e+01 
 7.23722e-03  5.61783e-03  0.00000e+00  3.47944e+00  5.08495e-04  3.60261e+02  3.60137e+02  7.93588e+00  8.02020e+00  6.96576e-01 -4.13316e+01  6.82733e+01  7.19789e+05 -7.38760e+05  1.82464e+03  0.00000e+00 -1.71468e+04 -1.33242e+03 -1.84792e+04  6.96583e-01  1.00000e+00  4.13221e+01  0.00000e+00  3.07582e+01 
 7.42387e-03  5.85632e-03  0.00000e+00  3.47944e+00  4.92325e-04  3.60259e+02  3.60137e+02  7.86030e+00  7.94058e+00  6.98463e-01 -4.19433e+01  7.05167e+01  7.77839e+05 -7.99454e+05  1.86860e+03  0.00000e+00 -1.97462e+04 -1.39279e+03 -2.11390e+04  6.98470e-01  1.00000e+00  4.19333e+01  0.00000e+00  3.36210e+01 
 7.61342e-03  6.09482e-03  0.00000e+00  3.47944e+00  4.76150e-04  3.60256e+02  3.60138e+02  7.78259e+00  7.85869e+00  7.00482e-01 -4.26195e+01  7.29132e+01  8.42688e+05 -8.67272e+05  1.91761e+03  0.00000e+00 -2.26661e+04 -1.45912e+03 -2.41252e+04  7.00487e-01  1.00000e+00  4.26091e+01  0.00000e+00  3.68771e+01 
 7.80566e-03  6.33332e-03  0.00000e+00  3.47944e+00  4.59809e-04  3.60253e+02  3.60139e+02  7.69167e+00  7.76361e+00  7.02590e-01 -4.34656e+01  7.55055e+01  9.15957e+05 -9.44682e+05  1.96497e+03  0.00000e+00 -2.67598e+04 -1.53635e+03 -2.82962e+04  7.02599e-01  1.00000e+00  4.34547e+01  0.00000e+00  4.05867e+01 
 8.00039e-03  6.57182e-03  0.00000e+00  3.47944e+00  4.43349e-04  3.60251e+02  3.60140e+02  7.60237e+00  7.67002e+00  7.04647e-01 -4.44831e+01  7.83102e+01  9.99466e+05 -1.03298e+06  2.01702e+03  0.00000e+00 -3.14988e+04 -1.62595e+03 -3.31248e+04  7.04655e-01  1.00000e+00  4.44715e+01  0.00000e+00  4.48294e+01 
 8.19744e-03  6.81033e-03  1.31016e-20  3.47944e+00  4.26670e-04  3.60249e+02  3.60141e+02  7.49606e+00  7.55962e+00  7.06860e-01 -4.58503e+01  8.13728e+01  1.09540e+06 -1.13465e+06  2.06576e+03  0.00000e+00 -3.71836e+04 -1.73600e+03 -3.89196e+04  7.06871e-01  1.00000e+00  4.58381e+01  0.00000e+00  4.97875e+01 
 8.39664e-03  7.04884e-03  0.00000e+00  3.47944e+00  4.09682e-04  3.60247e+02  3.60141e+02  7.39143e+00  7.45047e+00  7.09021e-01 -4.76496e+01  8.47486e+01  1.20744e+06 -1.25351e+06  2.12536e+03  0.00000e+00 -4.39525e+04 -1.87324e+03 -4.58257e+04  7.09033e-01  1.00000e+00  4.76367e+01  0.00000e+00  5.55941e+01 
 8.59784e-03  7.28736e-03  0.00000e+00  3.47944e+00  3.92210e-04  3.60246e+02  3.60142e+02  7.26627e+00  7.32124e+00  7.11309e-01 -5.02576e+01  8.85257e+01  1.34066e+06 -1.39443e+06  2.18068e+03  0.00000e+00 -5.15833e+04 -2.05719e+03 -5.36405e+04  7.11322e-01  1.00000e+00  5.02440e+01  0.00000e+00  6.26052e+01 
 8.80092e-03  7.52587e-03  0.00000e+00  3.47944e+00  3.74134e-04  3.60246e+02  3.60143e+02  7.13815e+00  7.18826e+00  7.13675e-01 -5.40061e+01  9.28046e+01  1.50166e+06 -1.56511e+06  2.25017e+03  0.00000e+00 -6.12012e+04 -2.30981e+03 -6.35110e+04  7.13690e-01  1.00000e+00  5.39915e+01  0.00000e+00  7.11528e+01 
 9.00573e-03  7.76439e-03 -1.17014e-20  3.47944e+00  3.55062e-04  3.60247e+02  3.60145e+02  6.98623e+00  7.03218e+00  7.16010e-01 -5.98462e+01  9.77915e+01  1.70379e+06 -1.77923e+06  2.31940e+03  0.00000e+00 -7.31173e+04 -2.68837e+03 -7.58057e+04  7.16023e-01  1.00000e+00  5.98306e+01  0.00000e+00  8.19107e+01 
 9.21216e-03  8.00291e-03  0.00000e+00  3.47944e+00  3.34841e-04  3.60250e+02  3.60146e+02  6.82382e+00  6.86463e+00  7.18636e-01 -6.91028e+01  1.03700e+02  1.96272e+06 -2.05386e+06  2.40643e+03  0.00000e+00 -8.87408e+04 -3.27976e+03 -9.20205e+04  7.18644e-01  1.00000e+00  6.90861e+01  0.00000e+00  9.59264e+01 
 9.42012e-03  8.24144e-03  0.00000e+00  3.47944e+00  3.12860e-04  3.60257e+02  3.60147e+02  6.62229e+00  6.65860e+00  7.21128e-01 -8.50276e+01  1.10988e+02  2.31277e+06 -2.42925e+06  2.50027e+03  0.00000e+00 -1.13982e+05 -4.30437e+03 -1.18286e+05  7.21127e-01  1.00000e+00  8.50093e+01  0.00000e+00  1.14686e+02 
 9.62949e-03  8.47996e-03  0.00000e+00  3.47944e+00  2.88522e-04  3.60270e+02  3.60148e+02  6.40610e+00  6.43683e+00  7.24485e-01 -1.14289e+02  1.20353e+02  2.80998e+06 -2.96644e+06  2.62302e+03  0.00000e+00 -1.53846e+05 -6.24482e+03 -1.60090e+05  7.24480e-01  1.00000e+00  1.14269e+02  0.00000e+00  1.42137e+02 
 9.84019e-03  8.71849e-03  0.00000e+00  3.47944e+00  2.61106e-04  3.60297e+02  3.60150e+02  6.10680e+00  6.13323e+00  7.27272e-01 -1.75337e+02  1.32995e+02  3.57614e+06 -3.81337e+06  2.75634e+03  0.00000e+00 -2.34472e+05 -1.05471e+04 -2.45019e+05  7.27250e-01  1.00000e+00  1.75314e+02  0.00000e+00  1.83373e+02 
 1.00521e-02  8.95702e-03  0.00000e+00  3.47944e+00  2.27701e-04  3.60355e+02  3.60152e+02  5.80135e+00  5.82227e+00  7.32273e-01 -3.30176e+02  1.52510e+02  4.97938e+06 -5.35488e+06  2.98891e+03  0.00000e+00 -3.72517e+05 -2.26275e+04 -3.95144e+05  7.32265e-01  1.00000e+00  3.30150e+02  0.00000e+00  2.63299e+02 
 1.02653e-02  9.19555e-03  0.00000e+00  3.47944e+00  1.87267e-04  3.60516e+02  3.60154e+02  5.20810e+00  5.22576e+00  7.35113e-01 -8.67532e+02  1.85449e+02  8.05575e+06 -8.74371e+06  3.23733e+03  0.00000e+00 -6.84719e+05 -7.20275e+04 -7.56747e+05  7.35118e-01  1.00000e+00  8.67500e+02  0.00000e+00  4.32149e+02 
 1.04795e-02  9.43408e-03  0.00000e+00  3.47944e+00  1.34159e-04  3.61200e+02  3.60157e+02  4.44839e+00  4.46067e+00  7.44699e-01 -9.09522e+03  2.58873e+02  1.87373e+07 -1.88187e+07  3.91860e+03  2.15061e+06  2.07316e+06 -2.11658e+06 -4.34160e+04  7.44674e-01  1.00000e+00  9.09518e+03  4.64631e+03  1.13644e+03 
