# Code_Saturne plot output (1D profile)
#
# Iteration output: 3706
# Time output:      2.30000e+01
#
#COLUMN_TITLES: Distance | X | Y | Z | diameter_Field2 | temp_Field1 | temp_Field2 | Velocity_Field1[Z] | Velocity_Field2[Z] | vol_f_Field2 | mass_trans_Field1 | Xd_Field2 | BK | COAL | COMP | NUCL | W1 | MT | SMBR | ALPBB | CONDNUM | GAMA | GAMANUC | epsilon_Field1
 4.56474e-03  1.39645e-04  0.00000e+00  3.47944e+00  2.40557e-05  3.59074e+02  3.60048e+02  4.29461e+00  4.29666e+00  1.00207e-02  2.30729e+02  1.44892e+03  2.59819e-64 -1.65904e+06  6.91817e+03  0.00000e+00 -1.65213e+06  1.61298e+07  1.44776e+07  1.00341e-02  1.00000e+00 -2.30226e+02  0.00000e+00  3.55635e-01 
 4.57812e-03  3.76525e-04  4.25872e-21  3.47944e+00  4.00239e-05  3.59074e+02  3.60048e+02  4.29451e+00  4.29890e+00  1.13611e-02  1.27368e+02  8.70847e+02  1.89644e-22 -7.97497e+05  4.12704e+03  0.00000e+00 -7.93370e+05  4.72326e+06  3.92989e+06  1.13725e-02  1.00000e+00 -1.27089e+02  0.00000e+00  3.59055e-01 
 4.60371e-03  6.13858e-04  0.00000e+00  3.47944e+00  5.48677e-05  3.59077e+02  3.60048e+02  4.29348e+00  4.30060e+00  1.25648e-02  9.02522e+01  6.35249e+02  7.36350e-10 -5.19073e+05  3.01025e+03  0.00000e+00 -5.16063e+05  2.20805e+06  1.69199e+06  1.25760e-02  1.00000e+00 -9.00529e+01  0.00000e+00  3.65574e-01 
 4.64138e-03  8.51483e-04  0.00000e+00  3.47944e+00  6.80820e-05  3.59084e+02  3.60048e+02  4.29177e+00  4.30164e+00  1.39506e-02  7.36727e+01  5.11951e+02  1.86858e-04 -4.02337e+05  2.42701e+03  0.00000e+00 -3.99910e+05  1.30848e+06  9.08572e+05  1.39621e-02  1.00000e+00 -7.35087e+01  0.00000e+00  3.75279e-01 
 4.69084e-03  1.08931e-03  0.00000e+00  3.47944e+00  8.00027e-05  3.59095e+02  3.60048e+02  4.28936e+00  4.30171e+00  1.56748e-02  6.58056e+01  4.35668e+02  1.49211e-01 -3.46943e+05  2.06666e+03  0.00000e+00 -3.44877e+05  8.85275e+05  5.40399e+05  1.56871e-02  1.00000e+00 -6.56574e+01  0.00000e+00  3.88448e-01 
 4.75174e-03  1.32727e-03  1.05001e-20  3.47944e+00  9.10931e-05  3.59110e+02  3.60048e+02  4.28625e+00  4.30094e+00  1.77571e-02  6.17224e+01  3.82627e+02  9.49673e+00 -3.18994e+05  1.81605e+03  0.00000e+00 -3.17168e+05  6.43759e+05  3.26591e+05  1.77706e-02  1.00000e+00 -6.15812e+01  0.00000e+00  4.05343e-01 
 4.82366e-03  1.56534e-03  0.00000e+00  3.47944e+00  1.01653e-04  3.59128e+02  3.60048e+02  4.28242e+00  4.29935e+00  2.02322e-02  5.97051e+01  3.42878e+02  1.59878e+02 -3.05985e+05  1.62812e+03  0.00000e+00 -3.04197e+05  4.89764e+05  1.85567e+05  2.02472e-02  1.00000e+00 -5.95659e+01  0.00000e+00  4.26313e-01 
 4.90611e-03  1.80349e-03  8.81027e-21  3.47944e+00  1.11794e-04  3.59150e+02  3.60048e+02  4.27786e+00  4.29691e+00  2.31504e-02  5.90103e+01  3.11777e+02  1.20759e+03 -3.02884e+05  1.48085e+03  0.00000e+00 -3.00195e+05  3.84668e+05  8.44733e+04  2.31673e-02  1.00000e+00 -5.88694e+01  0.00000e+00  4.51875e-01 
 4.99859e-03  2.04170e-03  0.00000e+00  3.47944e+00  1.21462e-04  3.59175e+02  3.60048e+02  4.27254e+00  4.29358e+00  2.65611e-02  5.93107e+01  2.86960e+02  5.35152e+03 -3.07611e+05  1.36313e+03  0.00000e+00 -3.00896e+05  3.10152e+05  9.25622e+03  2.65800e-02  1.00000e+00 -5.91652e+01  0.00000e+00  4.82603e-01 
 5.10055e-03  2.27996e-03  7.58893e-21  3.47944e+00  1.30495e-04  3.59204e+02  3.60048e+02  4.26642e+00  4.28927e+00  3.05324e-02  6.04786e+01  2.67096e+02  1.62948e+04 -3.19775e+05  1.26866e+03  0.00000e+00 -3.02212e+05  2.56073e+05 -4.61391e+04  3.05534e-02  1.00000e+00 -6.03253e+01  0.00000e+00  5.19253e-01 
 5.21143e-03  2.51826e-03  7.09702e-21  3.47944e+00  1.38689e-04  3.59236e+02  3.60048e+02  4.25945e+00  4.28388e+00  3.51252e-02  6.24718e+01  2.51316e+02  3.78368e+04 -3.39648e+05  1.19337e+03  0.00000e+00 -3.00618e+05  2.16332e+05 -8.42858e+04  3.51489e-02  1.00000e+00 -6.23074e+01  0.00000e+00  5.62682e-01 
 5.33068e-03  2.75659e-03  1.33300e-20  3.47944e+00  1.45890e-04  3.59270e+02  3.60048e+02  4.25155e+00  4.27731e+00  4.04238e-02  6.52616e+01  2.38910e+02  7.22816e+04 -3.68056e+05  1.13384e+03  0.00000e+00 -2.94640e+05  1.86668e+05 -1.07973e+05  4.04499e-02  1.00000e+00 -6.50825e+01  0.00000e+00  6.13943e-01 
 5.45775e-03  2.99495e-03  1.25651e-20  3.47944e+00  1.52059e-04  3.59307e+02  3.60048e+02  4.24266e+00  4.26948e+00  4.64962e-02  6.87892e+01  2.29218e+02  1.20192e+05 -4.05769e+05  1.08700e+03  0.00000e+00 -2.84490e+05  1.64108e+05 -1.20381e+05  4.65253e-02  1.00000e+00 -6.85913e+01  0.00000e+00  6.74249e-01 
 5.59212e-03  3.23333e-03  0.00000e+00  3.47944e+00  1.57279e-04  3.59347e+02  3.60048e+02  4.23268e+00  4.26031e+00  5.34322e-02  7.29503e+01  2.21611e+02  1.81309e+05 -4.53695e+05  1.04975e+03  0.00000e+00 -2.71337e+05  1.46403e+05 -1.24934e+05  5.34641e-02  1.00000e+00 -7.27291e+01  0.00000e+00  7.45072e-01 
 5.73326e-03  3.47172e-03  0.00000e+00  3.47944e+00  1.61722e-04  3.59388e+02  3.60048e+02  4.22149e+00  4.24975e+00  6.13014e-02  7.75954e+01  2.15522e+02  2.55299e+05 -5.12471e+05  1.01955e+03  0.00000e+00 -2.56153e+05  1.31987e+05 -1.24166e+05  6.13369e-02  1.00000e+00 -7.73461e+01  0.00000e+00  8.28079e-01 
 5.88069e-03  3.71014e-03 -5.35987e-21  3.47944e+00  1.65608e-04  3.59430e+02  3.60048e+02  4.20896e+00  4.23770e+00  7.01844e-02  8.16845e+01  2.10466e+02  3.42149e+05 -5.82712e+05  9.93941e+02  0.00000e+00 -2.39569e+05  1.18483e+05 -1.21086e+05  7.02270e-02  1.00000e+00 -8.14048e+01  0.00000e+00  9.25309e-01 
 6.03395e-03  3.94857e-03  5.10973e-21  3.47944e+00  1.69137e-04  3.59473e+02  3.60048e+02  4.19491e+00  4.22406e+00  8.01105e-02  8.54512e+01  2.06074e+02  4.41602e+05 -6.64472e+05  9.71321e+02  0.00000e+00 -2.21899e+05  1.06301e+05 -1.15599e+05  8.01574e-02  1.00000e+00 -8.51378e+01  0.00000e+00  1.03906e+00 
 6.19261e-03  4.18701e-03  0.00000e+00  3.47944e+00  1.72498e-04  3.59516e+02  3.60048e+02  4.17916e+00  4.20864e+00  9.10927e-02  8.87077e+01  2.02059e+02  5.53011e+05 -7.57514e+05  9.50097e+02  0.00000e+00 -2.03553e+05  9.51365e+04 -1.08417e+05  9.11402e-02  1.00000e+00 -8.83572e+01  0.00000e+00  1.17195e+00 
 6.35626e-03  4.42546e-03  0.00000e+00  3.47944e+00  1.75873e-04  3.59559e+02  3.60048e+02  4.16148e+00  4.19118e+00  1.03143e-01  9.12180e+01  1.98182e+02  6.75381e+05 -8.61259e+05  9.29273e+02  0.00000e+00 -1.84949e+05  8.47196e+04 -1.00229e+05  1.03190e-01  1.00000e+00 -9.08276e+01  0.00000e+00  1.32716e+00 
 6.52453e-03  4.66392e-03 -8.96437e-21  3.47944e+00  1.79432e-04  3.59601e+02  3.60048e+02  4.14159e+00  4.17150e+00  1.16243e-01  9.27115e+01  1.94251e+02  8.06687e+05 -9.74318e+05  9.07900e+02  0.00000e+00 -1.66723e+05  7.48635e+04 -9.18596e+04  1.16289e-01  1.00000e+00 -9.22791e+01  0.00000e+00  1.50813e+00 
 6.69707e-03  4.90238e-03  1.72236e-20  3.47944e+00  1.83322e-04  3.59643e+02  3.60048e+02  4.11920e+00  4.14928e+00  1.30328e-01  9.29915e+01  1.90130e+02  9.43979e+05 -1.09443e+06  8.85338e+02  0.00000e+00 -1.49570e+05  6.55264e+04 -8.40432e+04  1.30375e-01  1.00000e+00 -9.25161e+01  0.00000e+00  1.71867e+00 
 6.87356e-03  5.14086e-03  8.28595e-21  3.47944e+00  1.87654e-04  3.59683e+02  3.60048e+02  4.09398e+00  4.12423e+00  1.45267e-01  9.18855e+01  1.85741e+02  1.08387e+06 -1.21852e+06  8.60824e+02  0.00000e+00 -1.33787e+05  5.67210e+04 -7.70655e+04  1.45312e-01  1.00000e+00 -9.13675e+01  0.00000e+00  1.96376e+00 
 7.05370e-03  5.37934e-03 -1.59677e-20  3.47944e+00  1.92500e-04  3.59721e+02  3.60048e+02  4.06558e+00  4.09605e+00  1.60846e-01  8.93326e+01  1.81066e+02  1.22159e+06 -1.34248e+06  8.34695e+02  0.00000e+00 -1.20052e+05  4.85216e+04 -7.15307e+04  1.60892e-01  1.00000e+00 -8.87740e+01  0.00000e+00  2.24699e+00 
 7.23722e-03  5.61783e-03  0.00000e+00  3.47944e+00  1.97862e-04  3.59757e+02  3.60048e+02  4.03369e+00  4.06442e+00  1.76823e-01  8.53666e+01  1.76159e+02  1.35360e+06 -1.46277e+06  8.06787e+02  0.00000e+00 -1.08360e+05  4.10057e+04 -6.73545e+04  1.76869e-01  1.00000e+00 -8.47705e+01  0.00000e+00  2.57386e+00 
 7.42387e-03  5.85632e-03  0.00000e+00  3.47944e+00  2.03692e-04  3.59792e+02  3.60049e+02  3.99798e+00  4.02898e+00  1.92945e-01  8.01788e+01  1.71117e+02  1.47647e+06 -1.57629e+06  7.77973e+02  0.00000e+00 -9.90435e+04  3.42558e+04 -6.47877e+04  1.92995e-01  1.00000e+00 -7.95491e+01  0.00000e+00  2.94909e+00 
 7.61342e-03  6.09482e-03  0.00000e+00  3.47944e+00  2.09847e-04  3.59824e+02  3.60049e+02  3.95825e+00  3.98953e+00  2.09006e-01  7.40158e+01  1.66098e+02  1.58920e+06 -1.68219e+06  7.48640e+02  0.00000e+00 -9.22398e+04  2.83073e+04 -6.39326e+04  2.09056e-01  1.00000e+00 -7.33567e+01  0.00000e+00  3.38017e+00 
 7.80566e-03  6.33332e-03  0.00000e+00  3.47944e+00  2.16133e-04  3.59855e+02  3.60049e+02  3.91428e+00  3.94585e+00  2.24768e-01  6.71659e+01  1.61268e+02  1.69173e+06 -1.78041e+06  7.19893e+02  0.00000e+00 -8.79623e+04  2.31619e+04 -6.48004e+04  2.24819e-01  1.00000e+00 -6.64811e+01  0.00000e+00  3.87353e+00 
 8.00039e-03  6.57182e-03  0.00000e+00  3.47944e+00  2.22245e-04  3.59884e+02  3.60049e+02  3.86599e+00  3.89779e+00  2.40050e-01  5.98989e+01  1.56834e+02  1.78750e+06 -1.87407e+06  6.92266e+02  0.00000e+00 -8.58793e+04  1.87789e+04 -6.71004e+04  2.40101e-01  1.00000e+00 -5.91912e+01  0.00000e+00  4.44206e+00 
 8.19744e-03  6.81033e-03  1.31016e-20  3.47944e+00  2.27890e-04  3.59911e+02  3.60049e+02  3.81300e+00  3.84496e+00  2.54765e-01  5.24300e+01  1.52949e+02  1.87977e+06 -1.96702e+06  6.66781e+02  0.00000e+00 -8.65772e+04  1.50724e+04 -7.15048e+04  2.54820e-01  1.00000e+00 -5.17006e+01  0.00000e+00  5.09758e+00 
 8.39664e-03  7.04884e-03  0.00000e+00  3.47944e+00  2.32655e-04  3.59937e+02  3.60049e+02  3.75519e+00  3.78716e+00  2.68803e-01  4.48920e+01  1.49818e+02  1.97664e+06 -2.06659e+06  6.43795e+02  0.00000e+00 -8.93064e+04  1.19468e+04 -7.73596e+04  2.68862e-01  1.00000e+00 -4.41406e+01  0.00000e+00  5.86741e+00 
 8.59784e-03  7.28736e-03  0.00000e+00  3.47944e+00  2.36236e-04  3.59962e+02  3.60049e+02  3.69143e+00  3.72324e+00  2.82260e-01  3.72978e+01  1.47547e+02  2.08389e+06 -2.18014e+06  6.24012e+02  0.00000e+00 -9.56227e+04  9.27100e+03 -8.63517e+04  2.82321e-01  1.00000e+00 -3.65217e+01  0.00000e+00  6.77773e+00 
 8.80092e-03  7.52587e-03  0.00000e+00  3.47944e+00  2.38169e-04  3.59986e+02  3.60050e+02  3.62186e+00  3.65323e+00  2.95096e-01  2.95554e+01  1.46351e+02  2.21464e+06 -2.32019e+06  6.07618e+02  0.00000e+00 -1.04940e+05  6.92417e+03 -9.80157e+04  2.95155e-01  1.00000e+00 -2.87495e+01  0.00000e+00  7.88888e+00 
 9.00573e-03  7.76439e-03 -1.17014e-20  3.47944e+00  2.38177e-04  3.60010e+02  3.60050e+02  3.54292e+00  3.57358e+00  3.07401e-01  2.13759e+01  1.46346e+02  2.37869e+06 -2.49864e+06  5.94911e+02  0.00000e+00 -1.19354e+05  4.74731e+03 -1.14607e+05  3.07453e-01  1.00000e+00 -2.05325e+01  0.00000e+00  9.26129e+00 
 9.21216e-03  8.00291e-03  0.00000e+00  3.47944e+00  2.35758e-04  3.60035e+02  3.60050e+02  3.45686e+00  3.48642e+00  3.19297e-01  1.22928e+01  1.47849e+02  2.60080e+06 -2.74114e+06  5.86061e+02  0.00000e+00 -1.39748e+05  2.56371e+03 -1.37184e+05  3.19343e-01  1.00000e+00 -1.13999e+01  0.00000e+00  1.10475e+01 
 9.42012e-03  8.24144e-03  0.00000e+00  3.47944e+00  2.30677e-04  3.60061e+02  3.60050e+02  3.35292e+00  3.38106e+00  3.31052e-01  2.83485e+00  1.51106e+02  2.90399e+06 -3.07715e+06  5.80999e+02  0.00000e+00 -1.72579e+05  1.80933e+02 -1.72398e+05  3.31109e-01  1.00000e+00 -8.16234e-01  0.00000e+00  1.34251e+01 
 9.62949e-03  8.47996e-03  0.00000e+00  3.47944e+00  2.22231e-04  3.60090e+02  3.60051e+02  3.23800e+00  3.26382e+00  3.42664e-01 -2.94359e+01  1.56850e+02  3.35426e+06 -3.57379e+06  5.81473e+02  0.00000e+00 -2.18945e+05 -7.03191e+03 -2.25977e+05  3.42726e-01  1.00000e+00  3.16343e+01  0.00000e+00  1.68642e+01 
 9.84019e-03  8.71849e-03  0.00000e+00  3.47944e+00  2.09812e-04  3.60127e+02  3.60051e+02  3.08366e+00  3.10723e+00  3.54183e-01 -8.11995e+01  1.66136e+02  4.04433e+06 -4.34278e+06  5.87128e+02  0.00000e+00 -2.97863e+05 -1.90535e+04 -3.16917e+05  3.54250e-01  1.00000e+00  8.36494e+01  0.00000e+00  2.20258e+01 
 1.00521e-02  8.95702e-03  0.00000e+00  3.47944e+00  1.91885e-04  3.60188e+02  3.60052e+02  2.91096e+00  2.93218e+00  3.65670e-01 -1.86409e+02  1.81659e+02  5.29603e+06 -5.70247e+06  6.01226e+02  0.00000e+00 -4.05841e+05 -4.56492e+04 -4.51491e+05  3.65737e-01  1.00000e+00  1.89249e+02  0.00000e+00  3.14581e+01 
 1.02653e-02  9.19555e-03  0.00000e+00  3.47944e+00  1.67960e-04  3.60315e+02  3.60052e+02  2.63422e+00  2.65305e+00  3.77819e-01 -4.76805e+02  2.07537e+02  7.87401e+06 -8.37622e+06  6.15115e+02  0.00000e+00 -5.01591e+05 -1.28073e+05 -6.29664e+05  3.77882e-01  1.00000e+00  4.80273e+02  0.00000e+00  5.23715e+01 
 1.04795e-02  9.43408e-03  0.00000e+00  3.47944e+00  1.39112e-04  3.60743e+02  3.60053e+02  2.19789e+00  2.20952e+00  3.93768e-01 -4.94522e+03  2.50579e+02  1.50938e+07 -1.43597e+07  6.46554e+02  2.06833e+06  2.80313e+06 -2.86891e+06 -6.57845e+04  3.93819e-01  1.00000e+00  4.94975e+03  3.15987e+03  1.32716e+02 
