# Code_Saturne plot output (1D profile)
#
# Iteration output: 3643
# Time output:      2.30007e+01
#
#COLUMN_TITLES: Distance | X | Y | Z | diameter_Field2 | temp_Field1 | temp_Field2 | Velocity_Field1[Z] | Velocity_Field2[Z] | vol_f_Field2 | mass_trans_Field1 | Xd_Field2 | BK | COAL | COMP | NUCL | W1 | MT | SMBR | ALPBB | CONDNUM | GAMA | GAMANUC | epsilon_Field1
 4.56474e-03  1.39645e-04  0.00000e+00  3.47944e+00  2.97757e-05  3.58477e+02  3.60046e+02  4.17472e+00  4.17734e+00  2.76143e-03  7.06002e+01  1.17068e+03  2.70590e-51 -2.27335e+05  5.41634e+03  0.00000e+00 -2.21918e+05  9.36228e+06  9.14036e+06  2.75720e-03  1.00000e+00 -7.07323e+01  0.00000e+00  2.79548e-01 
 4.57812e-03  3.76525e-04  4.25872e-21  3.47944e+00  4.01132e-05  3.58481e+02  3.60046e+02  4.17436e+00  4.17833e+00  3.16782e-03  5.50985e+01  8.68984e+02  1.19048e-27 -1.58079e+05  3.98752e+03  0.00000e+00 -1.54092e+05  4.72744e+06  4.57335e+06  3.16359e-03  1.00000e+00 -5.52020e+01  0.00000e+00  2.82384e-01 
 4.60371e-03  6.13858e-04  0.00000e+00  3.47944e+00  4.94585e-05  3.58492e+02  3.60046e+02  4.17313e+00  4.17837e+00  3.68049e-03  4.92025e+01  7.04787e+02  8.18347e-17 -1.29577e+05  3.23421e+03  0.00000e+00 -1.26343e+05  2.94650e+06  2.82015e+06  3.67629e-03  1.00000e+00 -4.92955e+01  0.00000e+00  2.87926e-01 
 4.64138e-03  8.51483e-04  0.00000e+00  3.47944e+00  5.78720e-05  3.58507e+02  3.60046e+02  4.17127e+00  4.17806e+00  4.31851e-03  4.60964e+01  6.02324e+02  8.22605e-11 -1.17481e+05  2.76501e+03  0.00000e+00 -1.14716e+05  2.01033e+06  1.89561e+06  4.31424e-03  1.00000e+00 -4.61845e+01  0.00000e+00  2.96233e-01 
 4.69084e-03  1.08931e-03  0.00000e+00  3.47944e+00  6.56394e-05  3.58528e+02  3.60046e+02  4.16874e+00  4.17699e+00  5.15859e-03  4.57345e+01  5.31048e+02  5.43554e-07 -1.14598e+05  2.43777e+03  0.00000e+00 -1.12160e+05  1.47201e+06  1.35985e+06  5.15398e-03  1.00000e+00 -4.58231e+01  0.00000e+00  3.07443e-01 
 4.75174e-03  1.32727e-03  1.05001e-20  3.47944e+00  7.29839e-05  3.58555e+02  3.60046e+02  4.16552e+00  4.17521e+00  6.22844e-03  4.68333e+01  4.77608e+02  2.50070e-04 -1.17152e+05  2.19276e+03  0.00000e+00 -1.14959e+05  1.12274e+06  1.00779e+06  6.22339e-03  1.00000e+00 -4.69256e+01  0.00000e+00  3.21732e-01 
 4.82366e-03  1.56534e-03  0.00000e+00  3.47944e+00  8.01122e-05  3.58587e+02  3.60046e+02  4.16157e+00  4.17271e+00  7.56302e-03  4.88586e+01  4.35111e+02  2.38803e-02 -1.23391e+05  1.99774e+03  0.00000e+00 -1.21393e+05  8.78739e+05  7.57346e+05  7.55743e-03  1.00000e+00 -4.89570e+01  0.00000e+00  3.39326e-01 
 4.90611e-03  1.80349e-03  8.81027e-21  3.47944e+00  8.71521e-05  3.58624e+02  3.60046e+02  4.15686e+00  4.16946e+00  9.20598e-03  5.15523e+01  3.99964e+02  8.11826e-01 -1.32565e+05  1.83616e+03  0.00000e+00 -1.30728e+05  7.00169e+05  5.69441e+05  9.19975e-03  1.00000e+00 -5.16587e+01  0.00000e+00  3.60523e-01 
 4.99859e-03  2.04170e-03  0.00000e+00  3.47944e+00  9.41624e-05  3.58665e+02  3.60046e+02  4.15141e+00  4.16546e+00  1.12081e-02  5.47788e+01  3.70187e+02  1.32073e+01 -1.44420e+05  1.69898e+03  0.00000e+00 -1.42708e+05  5.65591e+05  4.22883e+05  1.12011e-02  1.00000e+00 -5.48953e+01  0.00000e+00  3.85744e-01 
 5.10055e-03  2.27996e-03  7.58893e-21  3.47944e+00  1.01146e-04  3.58712e+02  3.60046e+02  4.14520e+00  4.16068e+00  1.36290e-02  5.84727e+01  3.44628e+02  1.22983e+02 -1.59018e+05  1.58098e+03  0.00000e+00 -1.57314e+05  4.62214e+05  3.04901e+05  1.36212e-02  1.00000e+00 -5.86013e+01  0.00000e+00  4.15493e-01 
 5.21143e-03  2.51826e-03  7.09702e-21  3.47944e+00  1.08057e-04  3.58763e+02  3.60046e+02  4.13821e+00  4.15508e+00  1.65339e-02  6.26100e+01  3.22587e+02  7.38321e+02 -1.76638e+05  1.47891e+03  0.00000e+00 -1.74420e+05  3.81883e+05  2.07463e+05  1.65251e-02  1.00000e+00 -6.27532e+01  0.00000e+00  4.50383e-01 
 5.33068e-03  2.75659e-03  1.33300e-20  3.47944e+00  1.14799e-04  3.58818e+02  3.60046e+02  4.13037e+00  4.14855e+00  2.00009e-02  6.72244e+01  3.03641e+02  3.11480e+03 -1.97874e+05  1.39085e+03  0.00000e+00 -1.93368e+05  3.19059e+05  1.25691e+05  1.99910e-02  1.00000e+00 -6.73849e+01  0.00000e+00  4.91185e-01 
 5.45775e-03  2.99495e-03  1.25651e-20  3.47944e+00  1.21231e-04  3.58877e+02  3.60046e+02  4.12164e+00  4.14102e+00  2.41113e-02  7.23579e+01  2.87531e+02  9.86239e+03 -2.23559e+05  1.31566e+03  0.00000e+00 -2.12381e+05  2.69780e+05  5.73992e+04  2.41005e-02  1.00000e+00 -7.25392e+01  0.00000e+00  5.38753e-01 
 5.59212e-03  3.23333e-03  0.00000e+00  3.47944e+00  1.27183e-04  3.58939e+02  3.60046e+02  4.11194e+00  4.13238e+00  2.89605e-02  7.80982e+01  2.74076e+02  2.47768e+04 -2.54927e+05  1.25234e+03  0.00000e+00 -2.28898e+05  2.31101e+05  2.20350e+03  2.89485e-02  1.00000e+00 -7.83046e+01  0.00000e+00  5.94226e-01 
 5.73326e-03  3.47172e-03  0.00000e+00  3.47944e+00  1.32499e-04  3.59003e+02  3.60046e+02  4.10118e+00  4.12250e+00  3.46368e-02  8.44944e+01  2.63079e+02  5.17512e+04 -2.93384e+05  1.20014e+03  0.00000e+00 -2.40433e+05  2.00687e+05 -3.97462e+04  3.46237e-02  1.00000e+00 -8.47313e+01  0.00000e+00  6.58772e-01 
 5.88069e-03  3.71014e-03 -5.35987e-21  3.47944e+00  1.37088e-04  3.59070e+02  3.60046e+02  4.08926e+00  4.11128e+00  4.12561e-02  9.15866e+01  2.54273e+02  9.37436e+04 -3.40772e+05  1.15766e+03  0.00000e+00 -2.45871e+05  1.76545e+05 -6.93258e+04  4.12411e-02  1.00000e+00 -9.18606e+01  0.00000e+00  7.34009e-01 
 6.03395e-03  3.94857e-03  5.10973e-21  3.47944e+00  1.40941e-04  3.59138e+02  3.60046e+02  4.07610e+00  4.09863e+00  4.89117e-02  9.93026e+01  2.47322e+02  1.52432e+05 -3.98826e+05  1.12361e+03  0.00000e+00 -2.45271e+05  1.57078e+05 -8.81928e+04  4.88936e-02  1.00000e+00 -9.96216e+01  0.00000e+00  8.21680e-01 
 6.19261e-03  4.18701e-03  0.00000e+00  3.47944e+00  1.44129e-04  3.59207e+02  3.60046e+02  4.06156e+00  4.08446e+00  5.76840e-02  1.07428e+02  2.41852e+02  2.28672e+05 -4.69219e+05  1.09593e+03  0.00000e+00 -2.39451e+05  1.40936e+05 -9.85146e+04  5.76626e-02  1.00000e+00 -1.07801e+02  0.00000e+00  9.23869e-01 
 6.35626e-03  4.42546e-03  0.00000e+00  3.47944e+00  1.46782e-04  3.59276e+02  3.60046e+02  4.04547e+00  4.06863e+00  6.76740e-02  1.14985e+02  2.37480e+02  3.23229e+05 -5.53794e+05  1.07298e+03  0.00000e+00 -2.29491e+05  1.26291e+05 -1.03200e+05  6.76512e-02  1.00000e+00 -1.15419e+02  0.00000e+00  1.04334e+00 
 6.52453e-03  4.66392e-03 -8.96437e-21  3.47944e+00  1.49041e-04  3.59345e+02  3.60046e+02  4.02766e+00  4.05100e+00  7.89396e-02  1.21251e+02  2.33881e+02  4.36518e+05 -6.53944e+05  1.05309e+03  0.00000e+00 -2.16373e+05  1.12476e+05 -1.03897e+05  7.89141e-02  1.00000e+00 -1.21752e+02  0.00000e+00  1.18304e+00 
 6.69707e-03  4.90238e-03  1.72236e-20  3.47944e+00  1.51031e-04  3.59412e+02  3.60046e+02  4.00786e+00  4.03129e+00  9.14856e-02  1.26481e+02  2.30800e+02  5.68625e+05 -7.70701e+05  1.03531e+03  0.00000e+00 -2.01041e+05  9.99463e+04 -1.01095e+05  9.14572e-02  1.00000e+00 -1.27058e+02  0.00000e+00  1.34655e+00 
 6.87356e-03  5.14086e-03  8.28595e-21  3.47944e+00  1.52882e-04  3.59477e+02  3.60046e+02  3.98581e+00  4.00917e+00  1.05309e-01  1.30220e+02  2.28006e+02  7.19233e+05 -9.04677e+05  1.01826e+03  0.00000e+00 -1.84426e+05  8.83543e+04 -9.60714e+04  1.05277e-01  1.00000e+00 -1.30879e+02  0.00000e+00  1.53811e+00 
 7.05370e-03  5.37934e-03 -1.59677e-20  3.47944e+00  1.54722e-04  3.59539e+02  3.60046e+02  3.96117e+00  3.98441e+00  1.20397e-01  1.32148e+02  2.25294e+02  8.87609e+05 -1.05607e+06  1.00111e+03  0.00000e+00 -1.67459e+05  7.75390e+04 -8.99200e+04  1.20362e-01  1.00000e+00 -1.32896e+02  0.00000e+00  1.76309e+00 
 7.23722e-03  5.61783e-03  0.00000e+00  3.47944e+00  1.56658e-04  3.59599e+02  3.60046e+02  3.93353e+00  3.95662e+00  1.36646e-01  1.31914e+02  2.22511e+02  1.07182e+06 -1.22375e+06  9.82865e+02  0.00000e+00 -1.50946e+05  6.74024e+04 -8.35438e+04  1.36609e-01  1.00000e+00 -1.32757e+02  0.00000e+00  2.02744e+00 
 7.42387e-03  5.85632e-03  0.00000e+00  3.47944e+00  1.58770e-04  3.59655e+02  3.60046e+02  3.90249e+00  3.92541e+00  1.53823e-01  1.29271e+02  2.19551e+02  1.26809e+06 -1.40471e+06  9.63226e+02  0.00000e+00 -1.35658e+05  5.79439e+04 -7.77136e+04  1.53787e-01  1.00000e+00 -1.30211e+02  0.00000e+00  2.33668e+00 
 7.61342e-03  6.09482e-03  0.00000e+00  3.47944e+00  1.61105e-04  3.59707e+02  3.60046e+02  3.86758e+00  3.89031e+00  1.71700e-01  1.24196e+02  2.16370e+02  1.47299e+06 -1.59595e+06  9.41571e+02  0.00000e+00 -1.22013e+05  4.92003e+04 -7.28128e+04  1.71666e-01  1.00000e+00 -1.25231e+02  0.00000e+00  2.69894e+00 
 7.80566e-03  6.33332e-03  0.00000e+00  3.47944e+00  1.63669e-04  3.59755e+02  3.60046e+02  3.82836e+00  3.85090e+00  1.89972e-01  1.16864e+02  2.12981e+02  1.68170e+06 -1.79339e+06  9.18352e+02  0.00000e+00 -1.10774e+05  4.12404e+04 -6.95336e+04  1.89939e-01  1.00000e+00 -1.17993e+02  0.00000e+00  3.12143e+00 
 8.00039e-03  6.57182e-03  0.00000e+00  3.47944e+00  1.66411e-04  3.59799e+02  3.60047e+02  3.78441e+00  3.80673e+00  2.08385e-01  1.07617e+02  2.09472e+02  1.89111e+06 -1.99462e+06  8.93459e+02  0.00000e+00 -1.02612e+05  3.41068e+04 -6.85057e+04  2.08348e-01  1.00000e+00 -1.08835e+02  0.00000e+00  3.61485e+00 
 8.19744e-03  6.81033e-03  1.31016e-20  3.47944e+00  1.69229e-04  3.59840e+02  3.60047e+02  3.73538e+00  3.75746e+00  2.26637e-01  9.69195e+01  2.05984e+02  2.09919e+06 -2.19803e+06  8.67934e+02  0.00000e+00 -9.79711e+04  2.78297e+04 -7.01413e+04  2.26602e-01  1.00000e+00 -9.82213e+01  0.00000e+00  4.19093e+00 
 8.39664e-03  7.04884e-03  0.00000e+00  3.47944e+00  1.71943e-04  3.59876e+02  3.60047e+02  3.68079e+00  3.70259e+00  2.44535e-01  8.52533e+01  2.02734e+02  2.30777e+06 -2.40603e+06  8.42184e+02  0.00000e+00 -9.74210e+04  2.23913e+04 -7.50298e+04  2.44494e-01  1.00000e+00 -8.66341e+01  0.00000e+00  4.86859e+00 
 8.59784e-03  7.28736e-03  0.00000e+00  3.47944e+00  1.74333e-04  3.59910e+02  3.60047e+02  3.62040e+00  3.64185e+00  2.61864e-01  7.30288e+01  1.99956e+02  2.52073e+06 -2.62311e+06  8.17469e+02  0.00000e+00 -1.01562e+05  1.77310e+04 -8.38310e+04  2.61821e-01  1.00000e+00 -7.44860e+01  0.00000e+00  5.67071e+00 
 8.80092e-03  7.52587e-03  0.00000e+00  3.47944e+00  1.76086e-04  3.59940e+02  3.60047e+02  3.55319e+00  3.57418e+00  2.78558e-01  6.05375e+01  1.97965e+02  2.74908e+06 -2.86119e+06  7.94441e+02  0.00000e+00 -1.11319e+05  1.37521e+04 -9.75664e+04  2.78514e-01  1.00000e+00 -6.20723e+01  0.00000e+00  6.64010e+00 
 9.00573e-03  7.76439e-03 -1.17014e-20  3.47944e+00  1.76887e-04  3.59969e+02  3.60047e+02  3.47839e+00  3.49882e+00  2.94556e-01  4.78251e+01  1.97070e+02  3.00682e+06 -3.13581e+06  7.74273e+02  0.00000e+00 -1.28214e+05  1.03121e+04 -1.17902e+05  2.94517e-01  1.00000e+00 -4.94439e+01  0.00000e+00  7.83424e+00 
 9.21216e-03  8.00291e-03  0.00000e+00  3.47944e+00  1.76301e-04  3.59995e+02  3.60048e+02  3.39432e+00  3.41398e+00  3.10029e-01  3.46709e+01  1.97726e+02  3.32070e+06 -3.47771e+06  7.57851e+02  0.00000e+00 -1.56250e+05  7.23424e+03 -1.49016e+05  3.09994e-01  1.00000e+00 -3.63884e+01  0.00000e+00  9.36425e+00 
 9.42012e-03  8.24144e-03  0.00000e+00  3.47944e+00  1.73887e-04  3.60021e+02  3.60048e+02  3.29702e+00  3.31572e+00  3.24986e-01  2.03047e+01  2.00472e+02  3.72837e+06 -3.92914e+06  7.46019e+02  0.00000e+00 -2.00023e+05  4.25822e+03 -1.95765e+05  3.24955e-01  1.00000e+00 -2.21455e+01  0.00000e+00  1.13985e+01 
 9.62949e-03  8.47996e-03  0.00000e+00  3.47944e+00  1.68981e-04  3.60048e+02  3.60048e+02  3.18620e+00  3.20366e+00  3.39652e-01  3.06886e+00  2.06294e+02  4.31202e+06 -4.57977e+06  7.39462e+02  0.00000e+00 -2.67016e+05  9.61197e+02 -2.66055e+05  3.39621e-01  1.00000e+00 -5.07713e+00  0.00000e+00  1.43196e+01 
 9.84019e-03  8.71849e-03  0.00000e+00  3.47944e+00  1.60933e-04  3.60078e+02  3.60049e+02  3.04233e+00  3.05790e+00  3.54067e-01 -4.52196e+01  2.16612e+02  5.19704e+06 -5.57833e+06  7.42241e+02  0.00000e+00 -3.80551e+05 -7.77168e+03 -3.88322e+05  3.54019e-01  1.00000e+00  4.07527e+01  0.00000e+00  1.87379e+01 
 1.00521e-02  8.95702e-03  0.00000e+00  3.47944e+00  1.48357e-04  3.60121e+02  3.60049e+02  2.87226e+00  2.88631e+00  3.68311e-01 -1.43406e+02  2.34976e+02  6.78058e+06 -7.34601e+06  7.54633e+02  0.00000e+00 -5.64677e+05 -2.75013e+04 -5.92178e+05  3.68254e-01  1.00000e+00  1.38289e+02  0.00000e+00  2.66481e+01 
 1.02653e-02  9.19555e-03  0.00000e+00  3.47944e+00  1.30068e-04  3.60214e+02  3.60050e+02  2.61789e+00  2.62996e+00  3.83112e-01 -4.27248e+02  2.68020e+02  1.01668e+07 -1.10190e+07  7.75506e+02  0.00000e+00 -8.51362e+05 -9.18193e+04 -9.43181e+05  3.83055e-01  1.00000e+00  4.21060e+02  0.00000e+00  4.44035e+01 
 1.04795e-02  9.43408e-03  0.00000e+00  3.47944e+00  1.05277e-04  3.60563e+02  3.60051e+02  2.19530e+00  2.20213e+00  4.02616e-01 -5.11071e+03  3.31139e+02  2.05403e+07 -2.10735e+07  8.35810e+02  3.43550e+06  2.90310e+06 -3.03275e+06 -1.29653e+05  4.02518e-01  1.00000e+00  5.10258e+03  3.14490e+03  1.12346e+02 
