# Code_Saturne plot output (1D profile)
#
# Iteration output: 14257
# Time output:      2.30006e+01
#
#COLUMN_TITLES: Distance | X | Y | Z | diameter_Field2 | temp_Field1 | temp_Field2 | Velocity_Field1[Z] | Velocity_Field2[Z] | vol_f_Field2 | mass_trans_Field1 | Xd_Field2 | BK | COAL | COMP | NUCL | W1 | MT | SMBR | ALPBB | CONDNUM | GAMA | GAMANUC | epsilon_Field1
 4.56474e-03  1.39645e-04  0.00000e+00  3.47944e+00  8.08566e-04  3.60353e+02  3.60153e+02  9.26101e+00  9.42056e+00  7.11022e-01 -3.88668e+01  4.28862e+01  2.17765e+05 -2.11491e+05  1.55918e+03  0.00000e+00  7.83268e+03 -1.52045e+03  6.31223e+03  7.11029e-01  1.00000e+00  3.88639e+01  0.00000e+00  1.30932e+01 
 4.57812e-03  3.76525e-04  4.25872e-21  3.47944e+00  8.07019e-04  3.60353e+02  3.60153e+02  9.25907e+00  9.41876e+00  7.11134e-01 -3.89387e+01  4.29684e+01  2.18693e+05 -2.12598e+05  1.56226e+03  0.00000e+00  7.65738e+03 -1.52595e+03  6.13143e+03  7.11141e-01  1.00000e+00  3.89358e+01  0.00000e+00  1.31507e+01 
 4.60371e-03  6.13858e-04  0.00000e+00  3.47944e+00  8.04071e-04  3.60352e+02  3.60153e+02  9.25457e+00  9.41371e+00  7.11249e-01 -3.90242e+01  4.31259e+01  2.20567e+05 -2.14677e+05  1.56767e+03  0.00000e+00  7.45841e+03 -1.53466e+03  5.92375e+03  7.11256e-01  1.00000e+00  3.90213e+01  0.00000e+00  1.32635e+01 
 4.64138e-03  8.51483e-04  0.00000e+00  3.47944e+00  7.99788e-04  3.60352e+02  3.60153e+02  9.24778e+00  9.40588e+00  7.11440e-01 -3.91319e+01  4.33569e+01  2.23330e+05 -2.17721e+05  1.57536e+03  0.00000e+00  7.18397e+03 -1.54672e+03  5.63725e+03  7.11447e-01  1.00000e+00  3.91290e+01  0.00000e+00  1.34328e+01 
 4.69084e-03  1.08931e-03  0.00000e+00  3.47944e+00  7.94185e-04  3.60351e+02  3.60153e+02  9.23865e+00  9.39535e+00  7.11699e-01 -3.92707e+01  4.36628e+01  2.27024e+05 -2.21778e+05  1.58533e+03  0.00000e+00  6.83098e+03 -1.56259e+03  5.26839e+03  7.11706e-01  1.00000e+00  3.92678e+01  0.00000e+00  1.36606e+01 
 4.75174e-03  1.32727e-03  1.05001e-20  3.47944e+00  7.87336e-04  3.60350e+02  3.60153e+02  9.22721e+00  9.38216e+00  7.12038e-01 -3.94387e+01  4.40427e+01  2.31658e+05 -2.26855e+05  1.59756e+03  0.00000e+00  6.40013e+03 -1.58217e+03  4.81796e+03  7.12045e-01  1.00000e+00  3.94358e+01  0.00000e+00  1.39492e+01 
 4.82366e-03  1.56534e-03  0.00000e+00  3.47944e+00  7.79292e-04  3.60349e+02  3.60153e+02  9.21340e+00  9.36630e+00  7.12458e-01 -3.96361e+01  4.44974e+01  2.37275e+05 -2.33004e+05  1.61205e+03  0.00000e+00  5.88333e+03 -1.60556e+03  4.27777e+03  7.12465e-01  1.00000e+00  3.96331e+01  0.00000e+00  1.43018e+01 
 4.90611e-03  1.80349e-03  8.81027e-21  3.47944e+00  7.70140e-04  3.60347e+02  3.60153e+02  9.19718e+00  9.34775e+00  7.12958e-01 -3.98604e+01  4.50263e+01  2.43912e+05 -2.40247e+05  1.62877e+03  0.00000e+00  5.29389e+03 -1.63269e+03  3.66120e+03  7.12965e-01  1.00000e+00  3.98573e+01  0.00000e+00  1.47222e+01 
 4.99859e-03  2.04170e-03  0.00000e+00  3.47944e+00  7.59951e-04  3.60346e+02  3.60153e+02  9.17852e+00  9.32647e+00  7.13552e-01 -4.01106e+01  4.56300e+01  2.51614e+05 -2.48649e+05  1.64774e+03  0.00000e+00  4.61213e+03 -1.66358e+03  2.94855e+03  7.13559e-01  1.00000e+00  4.01075e+01  0.00000e+00  1.52148e+01 
 5.10055e-03  2.27996e-03  7.58893e-21  3.47944e+00  7.48820e-04  3.60344e+02  3.60153e+02  9.15733e+00  9.30242e+00  7.14229e-01 -4.03837e+01  4.63085e+01  2.60442e+05 -2.58251e+05  1.66890e+03  0.00000e+00  3.85991e+03 -1.69820e+03  2.16172e+03  7.14236e-01  1.00000e+00  4.03805e+01  0.00000e+00  1.57850e+01 
 5.21143e-03  2.51826e-03  7.09702e-21  3.47944e+00  7.36830e-04  3.60342e+02  3.60153e+02  9.13356e+00  9.27556e+00  7.15009e-01 -4.06783e+01  4.70622e+01  2.70450e+05 -2.69131e+05  1.69224e+03  0.00000e+00  3.01135e+03 -1.73653e+03  1.27482e+03  7.15016e-01  1.00000e+00  4.06750e+01  0.00000e+00  1.64388e+01 
 5.33068e-03  2.75659e-03  1.33300e-20  3.47944e+00  7.24059e-04  3.60340e+02  3.60154e+02  9.10715e+00  9.24585e+00  7.15865e-01 -4.09924e+01  4.78925e+01  2.81745e+05 -2.81370e+05  1.71776e+03  0.00000e+00  2.09304e+03 -1.77868e+03  3.14358e+02  7.15872e-01  1.00000e+00  4.09891e+01  0.00000e+00  1.71836e+01 
 5.45775e-03  2.99495e-03  1.25651e-20  3.47944e+00  7.10576e-04  3.60338e+02  3.60154e+02  9.07799e+00  9.21321e+00  7.16801e-01 -4.13255e+01  4.88016e+01  2.94429e+05 -2.95093e+05  1.74547e+03  0.00000e+00  1.08090e+03 -1.82478e+03 -7.43877e+02  7.16809e-01  1.00000e+00  4.13221e+01  0.00000e+00  1.80274e+01 
 5.59212e-03  3.23333e-03  0.00000e+00  3.47944e+00  6.96474e-04  3.60336e+02  3.60154e+02  9.04595e+00  9.17752e+00  7.17812e-01 -4.16754e+01  4.97900e+01  3.08606e+05 -3.10393e+05  1.77533e+03  0.00000e+00 -1.14021e+01 -1.87485e+03 -1.88625e+03  7.17820e-01  1.00000e+00  4.16719e+01  0.00000e+00  1.89797e+01 
 5.73326e-03  3.47172e-03  0.00000e+00  3.47944e+00  6.81841e-04  3.60334e+02  3.60154e+02  9.01089e+00  9.13866e+00  7.18907e-01 -4.20392e+01  5.08588e+01  3.24385e+05 -3.27387e+05  1.80728e+03  0.00000e+00 -1.19522e+03 -1.92888e+03 -3.12410e+03  7.18914e-01  1.00000e+00  4.20356e+01  0.00000e+00  2.00513e+01 
 5.88069e-03  3.71014e-03 -5.35987e-21  3.47944e+00  6.66754e-04  3.60331e+02  3.60155e+02  8.97266e+00  9.09651e+00  7.20077e-01 -4.24164e+01  5.20100e+01  3.41906e+05 -3.46212e+05  1.84129e+03  0.00000e+00 -2.46406e+03 -1.98699e+03 -4.45105e+03  7.20084e-01  1.00000e+00  4.24127e+01  0.00000e+00  2.12544e+01 
 6.03395e-03  3.94857e-03  5.10973e-21  3.47944e+00  6.51301e-04  3.60328e+02  3.60155e+02  8.93108e+00  9.05091e+00  7.21333e-01 -4.28032e+01  5.32445e+01  3.61302e+05 -3.67004e+05  1.87731e+03  0.00000e+00 -3.82526e+03 -2.04913e+03 -5.87439e+03  7.21340e-01  1.00000e+00  4.27994e+01  0.00000e+00  2.26031e+01 
 6.19261e-03  4.18701e-03  0.00000e+00  3.47944e+00  6.35540e-04  3.60325e+02  3.60156e+02  8.88596e+00  9.00169e+00  7.22657e-01 -4.32008e+01  5.45654e+01  3.82772e+05 -3.89945e+05  1.91534e+03  0.00000e+00 -5.25742e+03 -2.11559e+03 -7.37302e+03  7.22663e-01  1.00000e+00  4.31969e+01  0.00000e+00  2.41136e+01 
 6.35626e-03  4.42546e-03  0.00000e+00  3.47944e+00  6.19546e-04  3.60322e+02  3.60156e+02  8.83710e+00  8.94864e+00  7.24072e-01 -4.36060e+01  5.59747e+01  4.06471e+05 -4.15219e+05  1.95536e+03  0.00000e+00 -6.79193e+03 -2.18630e+03 -8.97823e+03  7.24078e-01  1.00000e+00  4.36019e+01  0.00000e+00  2.58048e+01 
 6.52453e-03  4.66392e-03 -8.96437e-21  3.47944e+00  6.03359e-04  3.60319e+02  3.60157e+02  8.78426e+00  8.89157e+00  7.25553e-01 -4.40229e+01  5.74770e+01  4.32676e+05 -4.43077e+05  1.99748e+03  0.00000e+00 -8.40342e+03 -2.26181e+03 -1.06652e+04  7.25559e-01  1.00000e+00  4.40187e+01  0.00000e+00  2.76984e+01 
 6.69707e-03  4.90238e-03  1.72236e-20  3.47944e+00  5.87028e-04  3.60316e+02  3.60157e+02  8.72719e+00  8.83022e+00  7.27121e-01 -4.44510e+01  5.90767e+01  4.61622e+05 -4.73799e+05  2.04184e+03  0.00000e+00 -1.01347e+04 -2.34230e+03 -1.24770e+04  7.27126e-01  1.00000e+00  4.44466e+01  0.00000e+00  2.98203e+01 
 6.87356e-03  5.14086e-03  8.28595e-21  3.47944e+00  5.70575e-04  3.60313e+02  3.60158e+02  8.66560e+00  8.76431e+00  7.28749e-01 -4.48991e+01  6.07810e+01  4.93692e+05 -5.07749e+05  2.08878e+03  0.00000e+00 -1.19687e+04 -2.42874e+03 -1.43975e+04  7.28752e-01  1.00000e+00  4.48945e+01  0.00000e+00  3.22009e+01 
 7.05370e-03  5.37934e-03 -1.59677e-20  3.47944e+00  5.54020e-04  3.60310e+02  3.60159e+02  8.59918e+00  8.69354e+00  7.30461e-01 -4.53726e+01  6.25982e+01  5.29243e+05 -5.45377e+05  2.13866e+03  0.00000e+00 -1.39958e+04 -2.52181e+03 -1.65176e+04  7.30462e-01  1.00000e+00  4.53679e+01  0.00000e+00  3.48770e+01 
 7.23722e-03  5.61783e-03  0.00000e+00  3.47944e+00  5.37366e-04  3.60307e+02  3.60160e+02  8.52819e+00  8.61824e+00  7.32239e-01 -4.58889e+01  6.45393e+01  5.68821e+05 -5.87198e+05  2.19099e+03  0.00000e+00 -1.61859e+04 -2.62320e+03 -1.88091e+04  7.32239e-01  1.00000e+00  4.58840e+01  0.00000e+00  3.78967e+01 
 7.42387e-03  5.85632e-03  0.00000e+00  3.47944e+00  5.20594e-04  3.60304e+02  3.60161e+02  8.45105e+00  8.53671e+00  7.34079e-01 -4.64673e+01  6.66198e+01  6.13102e+05 -6.33946e+05  2.24971e+03  0.00000e+00 -1.85948e+04 -2.73502e+03 -2.13298e+04  7.34078e-01  1.00000e+00  4.64622e+01  0.00000e+00  4.13183e+01 
 7.61342e-03  6.09482e-03  0.00000e+00  3.47944e+00  5.03684e-04  3.60301e+02  3.60162e+02  8.36780e+00  8.44904e+00  7.35988e-01 -4.71404e+01  6.88578e+01  6.62869e+05 -6.86545e+05  2.31519e+03  0.00000e+00 -2.13614e+04 -2.86041e+03 -2.42218e+04  7.35986e-01  1.00000e+00  4.71350e+01  0.00000e+00  4.52114e+01 
 7.80566e-03  6.33332e-03  0.00000e+00  3.47944e+00  4.86585e-04  3.60298e+02  3.60163e+02  8.27867e+00  8.35553e+00  7.37945e-01 -4.79566e+01  7.12794e+01  7.19314e+05 -7.46161e+05  2.38808e+03  0.00000e+00 -2.44590e+04 -3.00425e+03 -2.74632e+04  7.37947e-01  1.00000e+00  4.79509e+01  0.00000e+00  4.96784e+01 
 8.00039e-03  6.57182e-03  0.00000e+00  3.47944e+00  4.69245e-04  3.60295e+02  3.60165e+02  8.18114e+00  8.25349e+00  7.39972e-01 -4.89876e+01  7.39158e+01  7.83838e+05 -8.14313e+05  2.47597e+03  0.00000e+00 -2.79988e+04 -3.17359e+03 -3.11724e+04  7.39979e-01  1.00000e+00  4.89816e+01  0.00000e+00  5.48484e+01 
 8.19744e-03  6.81033e-03  1.31016e-20  3.47944e+00  4.51562e-04  3.60293e+02  3.60168e+02  8.07506e+00  8.14284e+00  7.42060e-01 -5.03445e+01  7.68135e+01  8.58491e+05 -8.93382e+05  2.58184e+03  0.00000e+00 -3.23094e+04 -3.37980e+03 -3.56892e+04  7.42069e-01  1.00000e+00  5.03382e+01  0.00000e+00  6.08865e+01 
 8.39664e-03  7.04884e-03  0.00000e+00  3.47944e+00  4.33452e-04  3.60291e+02  3.60171e+02  7.95932e+00  8.02246e+00  7.44216e-01 -5.21924e+01  8.00271e+01  9.45964e+05 -9.86162e+05  2.71192e+03  0.00000e+00 -3.74857e+04 -3.63982e+03 -4.11255e+04  7.44230e-01  1.00000e+00  5.21857e+01  0.00000e+00  6.80359e+01 
 8.59784e-03  7.28736e-03  0.00000e+00  3.47944e+00  4.14749e-04  3.60289e+02  3.60175e+02  7.83227e+00  7.89068e+00  7.46397e-01 -5.48123e+01  8.36417e+01  1.05050e+06 -1.09721e+06  2.87539e+03  0.00000e+00 -4.38279e+04 -3.98349e+03 -4.78113e+04  7.46416e-01  1.00000e+00  5.48053e+01  0.00000e+00  7.66351e+01 
 8.80092e-03  7.52587e-03  0.00000e+00  3.47944e+00  3.95326e-04  3.60289e+02  3.60181e+02  7.69189e+00  7.74549e+00  7.48738e-01 -5.86359e+01  8.77596e+01  1.17723e+06 -1.23247e+06  3.08413e+03  0.00000e+00 -5.21568e+04 -4.45719e+03 -5.66140e+04  7.48758e-01  1.00000e+00  5.86284e+01  0.00000e+00  8.71902e+01 
 9.00573e-03  7.76439e-03 -1.17014e-20  3.47944e+00  3.74857e-04  3.60289e+02  3.60189e+02  7.53498e+00  7.58363e+00  7.51038e-01 -6.44938e+01  9.25642e+01  1.33646e+06 -1.40270e+06  3.35460e+03  0.00000e+00 -6.28821e+04 -5.15503e+03 -6.80371e+04  7.51058e-01  1.00000e+00  6.44858e+01  0.00000e+00  1.00467e+02 
 9.21216e-03  8.00291e-03  0.00000e+00  3.47944e+00  3.53139e-04  3.60292e+02  3.60201e+02  7.35747e+00  7.40104e+00  7.53604e-01 -7.38112e+01  9.82753e+01  1.54087e+06 -1.62244e+06  3.71261e+03  0.00000e+00 -7.78526e+04 -6.24269e+03 -8.40953e+04  7.53619e-01  1.00000e+00  7.38025e+01  0.00000e+00  1.17763e+02 
 9.42012e-03  8.24144e-03  0.00000e+00  3.47944e+00  3.29598e-04  3.60299e+02  3.60219e+02  7.14951e+00  7.18765e+00  7.56042e-01 -8.96943e+01  1.05323e+02  1.81797e+06 -1.92315e+06  4.19732e+03  0.00000e+00 -1.00982e+05 -8.10421e+03 -1.09086e+05  7.56057e-01  1.00000e+00  8.96848e+01  0.00000e+00  1.41070e+02 
 9.62949e-03  8.47996e-03  0.00000e+00  3.47944e+00  3.03691e-04  3.60312e+02  3.60245e+02  6.90902e+00  6.94163e+00  7.59172e-01 -1.18772e+02  1.14353e+02  2.21013e+06 -2.35288e+06  4.87133e+03  0.00000e+00 -1.37881e+05 -1.16043e+04 -1.49485e+05  7.59183e-01  1.00000e+00  1.18761e+02  0.00000e+00  1.74919e+02 
 9.84019e-03  8.71849e-03  0.00000e+00  3.47944e+00  2.74318e-04  3.60339e+02  3.60284e+02  6.60541e+00  6.63305e+00  7.61725e-01 -1.79342e+02  1.26674e+02  2.82396e+06 -3.03516e+06  5.84266e+03  0.00000e+00 -2.05362e+05 -1.93447e+04 -2.24706e+05  7.61735e-01  1.00000e+00  1.79331e+02  0.00000e+00  2.26580e+02 
 1.00521e-02  8.95702e-03  0.00000e+00  3.47944e+00  2.38913e-04  3.60400e+02  3.60346e+02  6.25207e+00  6.27381e+00  7.67156e-01 -3.31716e+02  1.45583e+02  3.92904e+06 -4.24461e+06  7.34841e+03  0.00000e+00 -3.08216e+05 -4.08270e+04 -3.49043e+05  7.67115e-01  1.00000e+00  3.31702e+02  0.00000e+00  3.26602e+02 
 1.02653e-02  9.19555e-03  0.00000e+00  3.47944e+00  1.96574e-04  3.60568e+02  3.60457e+02  5.63298e+00  5.65255e+00  7.69671e-01 -8.57629e+02  1.77237e+02  6.35453e+06 -6.89423e+06  9.08154e+03  0.00000e+00 -5.30615e+05 -1.28100e+05 -6.58715e+05  7.69608e-01  1.00000e+00  8.57613e+02  0.00000e+00  5.37078e+02 
 1.04795e-02  9.43408e-03  0.00000e+00  3.47944e+00  1.42084e-04  3.61286e+02  3.60713e+02  4.81539e+00  4.83042e+00  7.80401e-01 -9.56620e+03  2.46146e+02  1.45398e+07 -1.37060e+07  2.50747e+04  2.20169e+06  3.06058e+06 -3.06706e+06 -6.48038e+03  7.80418e-01  1.00000e+00  9.56618e+03  5.27667e+03  1.44872e+03 
