# Code_Saturne plot output (1D profile)
#
# Iteration output: 4655
# Time output:      2.30005e+01
#
#COLUMN_TITLES: Distance | X | Y | Z | diameter_Field2 | temp_Field1 | temp_Field2 | Velocity_Field1[Z] | Velocity_Field2[Z] | vol_f_Field2 | mass_trans_Field1 | Xd_Field2 | BK | COAL | COMP | NUCL | W1 | MT | SMBR | ALPBB | CONDNUM | GAMA | GAMANUC | epsilon_Field1
 4.56474e-03  1.39645e-04  0.00000e+00  3.47944e+00  2.71738e-04  3.59823e+02  3.60054e+02  5.00541e+00  5.06703e+00  1.59232e-01  3.48254e+01  1.28222e+02  3.47039e+05 -7.08106e+05  8.76976e+02  0.00000e+00 -3.60189e+05  1.09178e+04 -3.49271e+05  1.59204e-01  1.00000e+00 -3.49371e+01  0.00000e+00  8.87212e-01 
 4.57812e-03  3.76525e-04  4.25872e-21  3.47944e+00  2.91007e-04  3.59824e+02  3.60054e+02  5.00429e+00  5.07095e+00  1.60322e-01  3.19460e+01  1.19732e+02  3.48504e+05 -6.33932e+05  8.19245e+02  0.00000e+00 -2.84609e+05  9.28799e+03 -2.75321e+05  1.60296e-01  1.00000e+00 -3.20488e+01  0.00000e+00  8.97916e-01 
 4.60371e-03  6.13858e-04  0.00000e+00  3.47944e+00  3.03738e-04  3.59826e+02  3.60054e+02  5.00207e+00  5.07187e+00  1.62175e-01  3.03898e+01  1.14713e+02  3.51383e+05 -5.98339e+05  7.85160e+02  0.00000e+00 -2.46171e+05  8.36847e+03 -2.37803e+05  1.62149e-01  1.00000e+00 -3.04883e+01  0.00000e+00  9.18767e-01 
 4.64138e-03  8.51483e-04  0.00000e+00  3.47944e+00  3.13621e-04  3.59828e+02  3.60054e+02  4.99885e+00  5.07087e+00  1.64830e-01  2.93867e+01  1.11098e+02  3.56599e+05 -5.80025e+05  7.60492e+02  0.00000e+00 -2.22665e+05  7.71109e+03 -2.14954e+05  1.64805e-01  1.00000e+00 -2.94829e+01  0.00000e+00  9.50156e-01 
 4.69084e-03  1.08931e-03  0.00000e+00  3.47944e+00  3.22881e-04  3.59831e+02  3.60054e+02  4.99450e+00  5.06841e+00  1.68328e-01  2.85776e+01  1.07912e+02  3.63536e+05 -5.69360e+05  7.38635e+02  0.00000e+00 -2.05085e+05  7.13251e+03 -1.97953e+05  1.68305e-01  1.00000e+00 -2.86724e+01  0.00000e+00  9.92559e-01 
 4.75174e-03  1.32727e-03  1.05001e-20  3.47944e+00  3.32543e-04  3.59836e+02  3.60054e+02  4.98894e+00  5.06471e+00  1.72630e-01  2.78043e+01  1.04777e+02  3.71479e+05 -5.62140e+05  7.17052e+02  0.00000e+00 -1.89943e+05  6.57026e+03 -1.83373e+05  1.72608e-01  1.00000e+00 -2.78982e+01  0.00000e+00  1.04671e+00 
 4.82366e-03  1.56534e-03  0.00000e+00  3.47944e+00  3.43160e-04  3.59840e+02  3.60054e+02  4.98211e+00  5.05983e+00  1.77735e-01  2.69926e+01  1.01535e+02  3.79641e+05 -5.56268e+05  6.94668e+02  0.00000e+00 -1.75932e+05  6.00388e+03 -1.69928e+05  1.77715e-01  1.00000e+00 -2.70857e+01  0.00000e+00  1.11344e+00 
 4.90611e-03  1.80349e-03  8.81027e-21  3.47944e+00  3.55029e-04  3.59846e+02  3.60054e+02  4.97388e+00  5.05373e+00  1.83581e-01  2.60995e+01  9.81406e+01  3.87302e+05 -5.50403e+05  6.71176e+02  0.00000e+00 -1.62429e+05  5.43290e+03 -1.56996e+05  1.83561e-01  1.00000e+00 -2.61919e+01  0.00000e+00  1.19376e+00 
 4.99859e-03  2.04170e-03  0.00000e+00  3.47944e+00  3.68316e-04  3.59853e+02  3.60054e+02  4.96415e+00  5.04634e+00  1.90149e-01  2.51101e+01  9.46001e+01  3.93769e+05 -5.43805e+05  6.46627e+02  0.00000e+00 -1.49390e+05  4.86477e+03 -1.44525e+05  1.90131e-01  1.00000e+00 -2.52016e+01  0.00000e+00  1.28875e+00 
 5.10055e-03  2.27996e-03  7.58893e-21  3.47944e+00  3.83047e-04  3.59860e+02  3.60054e+02  4.95280e+00  5.03752e+00  1.97335e-01  2.40178e+01  9.09622e+01  3.98561e+05 -5.35917e+05  6.21284e+02  0.00000e+00 -1.36735e+05  4.31176e+03 -1.32423e+05  1.97318e-01  1.00000e+00 -2.41083e+01  0.00000e+00  1.39958e+00 
 5.21143e-03  2.51826e-03  7.09702e-21  3.47944e+00  3.99149e-04  3.59868e+02  3.60054e+02  4.93986e+00  5.02713e+00  2.05131e-01  2.28357e+01  8.72928e+01  4.01348e+05 -5.26704e+05  5.95537e+02  0.00000e+00 -1.24761e+05  3.78529e+03 -1.20975e+05  2.05109e-01  1.00000e+00 -2.29252e+01  0.00000e+00  1.52748e+00 
 5.33068e-03  2.75659e-03  1.33300e-20  3.47944e+00  4.16385e-04  3.59876e+02  3.60054e+02  4.92540e+00  5.01349e+00  2.13373e-01  2.14608e+01  8.36793e+01  4.02254e+05 -5.16168e+05  5.70135e+02  0.00000e+00 -1.13344e+05  3.27911e+03 -1.10065e+05  2.13340e-01  1.00000e+00 -2.15486e+01  0.00000e+00  1.67429e+00 
 5.45775e-03  2.99495e-03  1.25651e-20  3.47944e+00  4.34417e-04  3.59885e+02  3.60054e+02  4.90917e+00  4.99680e+00  2.22035e-01  2.00507e+01  8.02060e+01  4.01411e+05 -5.04778e+05  5.45323e+02  0.00000e+00 -1.02822e+05  2.82261e+03 -9.99992e+04  2.21993e-01  1.00000e+00 -2.01368e+01  0.00000e+00  1.84084e+00 
 5.59212e-03  3.23333e-03  0.00000e+00  3.47944e+00  4.52752e-04  3.59895e+02  3.60054e+02  4.89088e+00  4.97756e+00  2.30979e-01  1.86466e+01  7.69580e+01  3.99416e+05 -4.93068e+05  5.21774e+02  0.00000e+00 -9.31306e+04  2.42170e+03 -9.07089e+04  2.30934e-01  1.00000e+00 -1.87311e+01  0.00000e+00  2.02906e+00 
 5.73326e-03  3.47172e-03  0.00000e+00  3.47944e+00  4.70819e-04  3.59905e+02  3.60054e+02  4.87046e+00  4.95599e+00  2.40136e-01  1.72806e+01  7.40050e+01  3.96890e+05 -4.81759e+05  5.00171e+02  0.00000e+00 -8.43690e+04  2.07643e+03 -8.22925e+04  2.40091e-01  1.00000e+00 -1.73639e+01  0.00000e+00  2.24027e+00 
 5.88069e-03  3.71014e-03 -5.35987e-21  3.47944e+00  4.87954e-04  3.59915e+02  3.60054e+02  4.84778e+00  4.93209e+00  2.49319e-01  1.59637e+01  7.14063e+01  3.94704e+05 -4.71497e+05  4.80814e+02  0.00000e+00 -7.63122e+04  1.78323e+03 -7.45289e+04  2.49275e-01  1.00000e+00 -1.60459e+01  0.00000e+00  2.47678e+00 
 6.03395e-03  3.94857e-03  5.10973e-21  3.47944e+00  5.03583e-04  3.59927e+02  3.60054e+02  4.82277e+00  4.90585e+00  2.58560e-01  1.47110e+01  6.91903e+01  3.93453e+05 -4.63143e+05  4.64005e+02  0.00000e+00 -6.92260e+04  1.53599e+03 -6.76900e+04  2.58516e-01  1.00000e+00 -1.47928e+01  0.00000e+00  2.74062e+00 
 6.19261e-03  4.18701e-03  0.00000e+00  3.47944e+00  5.17176e-04  3.59938e+02  3.60054e+02  4.79537e+00  4.87720e+00  2.67771e-01  1.35149e+01  6.73719e+01  3.93772e+05 -4.57271e+05  4.49705e+02  0.00000e+00 -6.30497e+04  1.32739e+03 -6.17223e+04  2.67726e-01  1.00000e+00 -1.35967e+01  0.00000e+00  3.03455e+00 
 6.35626e-03  4.42546e-03  0.00000e+00  3.47944e+00  5.28385e-04  3.59950e+02  3.60055e+02  4.76548e+00  4.84609e+00  2.76906e-01  1.23652e+01  6.59429e+01  3.96030e+05 -4.54272e+05  4.37916e+02  0.00000e+00 -5.78040e+04  1.15018e+03 -5.66539e+04  2.76858e-01  1.00000e+00 -1.24474e+01  0.00000e+00  3.36059e+00 
 6.52453e-03  4.66392e-03 -8.96437e-21  3.47944e+00  5.36971e-04  3.59962e+02  3.60055e+02  4.73308e+00  4.81248e+00  2.85893e-01  1.12406e+01  6.48886e+01  4.00616e+05 -4.54450e+05  4.28428e+02  0.00000e+00 -5.34056e+04  9.97254e+02 -5.24083e+04  2.85844e-01  1.00000e+00 -1.13238e+01  0.00000e+00  3.72249e+00 
 6.69707e-03  4.90238e-03  1.72236e-20  3.47944e+00  5.42909e-04  3.59974e+02  3.60055e+02  4.69803e+00  4.77626e+00  2.94728e-01  1.01213e+01  6.41792e+01  4.07652e+05 -4.57959e+05  4.21075e+02  0.00000e+00 -4.98867e+04  8.62334e+02 -4.90244e+04  2.94680e-01  1.00000e+00 -1.02062e+01  0.00000e+00  4.12319e+00 
 6.87356e-03  5.14086e-03  8.28595e-21  3.47944e+00  5.46208e-04  3.59986e+02  3.60055e+02  4.66028e+00  4.73734e+00  3.03326e-01  8.98053e+00  6.37917e+01  4.17432e+05 -4.64916e+05  4.15613e+02  0.00000e+00 -4.70686e+04  7.39905e+02 -4.63287e+04  3.03279e-01  1.00000e+00 -9.06748e+00  0.00000e+00  4.56832e+00 
 7.05370e-03  5.37934e-03 -1.59677e-20  3.47944e+00  5.47052e-04  3.59999e+02  3.60055e+02  4.61963e+00  4.69558e+00  3.11739e-01  7.79532e+00  6.36935e+01  4.29967e+05 -4.75424e+05  4.11841e+02  0.00000e+00 -4.50446e+04  6.25075e+02 -4.44195e+04  3.11692e-01  1.00000e+00 -7.88491e+00  0.00000e+00  5.06235e+00 
 7.23722e-03  5.61783e-03  0.00000e+00  3.47944e+00  5.45541e-04  3.60012e+02  3.60055e+02  4.57606e+00  4.65089e+00  3.19865e-01  6.53794e+00  6.38702e+01  4.45664e+05 -4.89643e+05  4.09539e+02  0.00000e+00 -4.35698e+04  5.13714e+02 -4.30561e+04  3.19817e-01  1.00000e+00 -6.63070e+00  0.00000e+00  5.61458e+00 
 7.42387e-03  5.85632e-03  0.00000e+00  3.47944e+00  5.41934e-04  3.60025e+02  3.60055e+02  4.52916e+00  4.60294e+00  3.27831e-01  5.18224e+00  6.42956e+01  4.64510e+05 -5.07819e+05  4.08561e+02  0.00000e+00 -4.29011e+04  4.01691e+02 -4.24994e+04  3.27781e-01  1.00000e+00 -5.27873e+00  0.00000e+00  6.23145e+00 
 7.61342e-03  6.09482e-03  0.00000e+00  3.47944e+00  5.36278e-04  3.60038e+02  3.60055e+02  4.47899e+00  4.55172e+00  3.35487e-01  3.69721e+00  6.49739e+01  4.87257e+05 -5.30351e+05  4.08755e+02  0.00000e+00 -4.26857e+04  2.85397e+02 -4.24003e+04  3.35437e-01  1.00000e+00 -3.79801e+00  0.00000e+00  6.92906e+00 
 7.80566e-03  6.33332e-03  0.00000e+00  3.47944e+00  5.28837e-04  3.60052e+02  3.60056e+02  4.42474e+00  4.49648e+00  3.43033e-01  2.04773e+00  6.58885e+01  5.13955e+05 -5.57791e+05  4.10038e+02  0.00000e+00 -4.34254e+04  1.60488e+02 -4.32649e+04  3.42985e-01  1.00000e+00 -2.15348e+00  0.00000e+00  7.71723e+00 
 8.00039e-03  6.57182e-03  0.00000e+00  3.47944e+00  5.19532e-04  3.60066e+02  3.60056e+02  4.36684e+00  4.43759e+00  3.50225e-01  1.91275e-01  6.70689e+01  5.46035e+05 -5.90961e+05  4.12367e+02  0.00000e+00 -4.45134e+04  2.24900e+01 -4.44910e+04  3.50179e-01  1.00000e+00 -3.02684e-01  0.00000e+00  8.62509e+00 
 8.19744e-03  6.81033e-03  1.31016e-20  3.47944e+00  5.08643e-04  3.60080e+02  3.60056e+02  4.30329e+00  4.37310e+00  3.57390e-01 -4.47646e+00  6.85051e+01  5.83652e+05 -6.30922e+05  4.15637e+02  0.00000e+00 -4.68548e+04 -3.13204e+02 -4.71680e+04  3.57349e-01  1.00000e+00  4.21138e+00  0.00000e+00  9.66956e+00 
 8.39664e-03  7.04884e-03  0.00000e+00  3.47944e+00  4.95935e-04  3.60094e+02  3.60056e+02  4.23606e+00  4.30490e+00  3.64319e-01 -1.01209e+01  7.02608e+01  6.29228e+05 -6.79580e+05  4.20030e+02  0.00000e+00 -4.99321e+04 -7.36228e+02 -5.06683e+04  3.64282e-01  1.00000e+00  9.83943e+00  0.00000e+00  1.09041e+01 
 8.59784e-03  7.28736e-03  0.00000e+00  3.47944e+00  4.81571e-04  3.60110e+02  3.60057e+02  4.15963e+00  4.22758e+00  3.71255e-01 -1.68978e+01  7.23570e+01  6.83913e+05 -7.39158e+05  4.25149e+02  0.00000e+00 -5.48196e+04 -1.25503e+03 -5.60746e+04  3.71219e-01  1.00000e+00  1.65975e+01  0.00000e+00  1.23661e+01 
 8.80092e-03  7.52587e-03  0.00000e+00  3.47944e+00  4.65070e-04  3.60127e+02  3.60057e+02  4.08090e+00  4.14792e+00  3.77986e-01 -2.53158e+01  7.49249e+01  7.52755e+05 -8.14141e+05  4.31745e+02  0.00000e+00 -6.09547e+04 -1.92207e+03 -6.28768e+04  3.77948e-01  1.00000e+00  2.49929e+01  0.00000e+00  1.41735e+01 
 9.00573e-03  7.76439e-03 -1.17014e-20  3.47944e+00  4.46573e-04  3.60145e+02  3.60057e+02  3.98451e+00  4.05047e+00  3.84846e-01 -3.61899e+01  7.80289e+01  8.38280e+05 -9.09913e+05  4.39582e+02  0.00000e+00 -7.11935e+04 -2.81921e+03 -7.40127e+04  3.84804e-01  1.00000e+00  3.58404e+01  0.00000e+00  1.63900e+01 
 9.21216e-03  8.00291e-03  0.00000e+00  3.47944e+00  4.25166e-04  3.60167e+02  3.60058e+02  3.89056e+00  3.95486e+00  3.91583e-01 -5.09942e+01  8.19581e+01  9.53191e+05 -1.03790e+06  4.50075e+02  0.00000e+00 -8.42628e+04 -4.10954e+03 -8.83723e+04  3.91533e-01  1.00000e+00  5.06115e+01  0.00000e+00  1.93375e+01 
 9.42012e-03  8.24144e-03  0.00000e+00  3.47944e+00  4.00942e-04  3.60195e+02  3.60058e+02  3.76303e+00  3.82339e+00  3.98573e-01 -7.22258e+01  8.69108e+01  1.10728e+06 -1.21373e+06  4.61900e+02  0.00000e+00 -1.05994e+05 -6.07423e+03 -1.12069e+05  3.98510e-01  1.00000e+00  7.18020e+01  0.00000e+00  2.32505e+01 
 9.62949e-03  8.47996e-03  0.00000e+00  3.47944e+00  3.72475e-04  3.60231e+02  3.60059e+02  3.64002e+00  3.69359e+00  4.05697e-01 -1.05436e+02  9.35539e+01  1.33601e+06 -1.47229e+06  4.79702e+02  0.00000e+00 -1.35792e+05 -9.39017e+03 -1.45182e+05  4.05624e-01  1.00000e+00  1.04957e+02  0.00000e+00  2.90877e+01 
 9.84019e-03  8.71849e-03  0.00000e+00  3.47944e+00  3.39830e-04  3.60284e+02  3.60059e+02  3.44335e+00  3.49056e+00  4.13027e-01 -1.62602e+02  1.02542e+02  1.67904e+06 -1.87258e+06  4.98358e+02  0.00000e+00 -1.93041e+05 -1.56090e+04 -2.08650e+05  4.12946e-01  1.00000e+00  1.62049e+02  0.00000e+00  3.76952e+01 
 1.00521e-02  8.95702e-03  0.00000e+00  3.47944e+00  2.99654e-04  3.60371e+02  3.60060e+02  3.26125e+00  3.30259e+00  4.20515e-01 -2.80433e+02  1.16292e+02  2.30776e+06 -2.58583e+06  5.29387e+02  0.00000e+00 -2.77545e+05 -3.00171e+04 -3.07562e+05  4.20432e-01  1.00000e+00  2.79763e+02  0.00000e+00  5.38427e+01 
 1.02653e-02  9.19555e-03  0.00000e+00  3.47944e+00  2.51709e-04  3.60548e+02  3.60061e+02  2.91148e+00  2.94655e+00  4.29013e-01 -5.87884e+02  1.38445e+02  3.61189e+06 -4.01000e+06  5.57275e+02  0.00000e+00 -3.97556e+05 -7.34974e+04 -4.71053e+05  4.28928e-01  1.00000e+00  5.87019e+02  0.00000e+00  8.92493e+01 
 1.04795e-02  9.43408e-03  0.00000e+00  3.47944e+00  1.96149e-04  3.61077e+02  3.60062e+02  2.42581e+00  2.44671e+00  4.40397e-01 -5.22910e+03  1.77663e+02  7.41950e+06 -6.97575e+06  6.14659e+02  1.26935e+06  1.71371e+06 -1.72701e+06 -1.33039e+04  4.40321e-01  1.00000e+00  5.22787e+03  3.37824e+03  2.26181e+02 
