# Code_Saturne plot output (1D profile)
#
# Iteration output: 4478
# Time output:      2.30003e+01
#
#COLUMN_TITLES: Distance | X | Y | Z | diameter_Field2 | temp_Field1 | temp_Field2 | Velocity_Field1[Z] | Velocity_Field2[Z] | vol_f_Field2 | mass_trans_Field1 | Xd_Field2 | BK | COAL | COMP | NUCL | W1 | MT | SMBR | ALPBB | CONDNUM | GAMA | GAMANUC | epsilon_Field1
 4.56474e-03  1.39645e-04  0.00000e+00  3.47944e+00  1.67834e-04  3.59584e+02  3.60054e+02  4.78988e+00  4.82547e+00  1.05327e-01  8.64891e+01  2.07618e+02  8.44820e+04 -8.02804e+05  1.31892e+03  0.00000e+00 -7.17003e+05  6.84328e+04 -6.48570e+05  1.05334e-01  1.00000e+00 -8.63100e+01  0.00000e+00  6.91337e-01 
 4.57812e-03  3.76525e-04  4.25872e-21  3.47944e+00  2.03167e-04  3.59585e+02  3.60054e+02  4.78891e+00  4.83330e+00  1.06319e-01  6.76560e+01  1.71510e+02  1.41966e+05 -5.84382e+05  1.09092e+03  0.00000e+00 -4.41325e+05  4.38126e+04 -3.97512e+05  1.06327e-01  1.00000e+00 -6.75154e+01  0.00000e+00  7.00014e-01 
 4.60371e-03  6.13858e-04  0.00000e+00  3.47944e+00  2.26722e-04  3.59587e+02  3.60054e+02  4.78694e+00  4.83710e+00  1.08106e-01  5.93919e+01  1.53691e+02  1.71568e+05 -4.94683e+05  9.78512e+02  0.00000e+00 -3.22137e+05  3.38970e+04 -2.88240e+05  1.08114e-01  1.00000e+00 -5.92679e+01  0.00000e+00  7.16897e-01 
 4.64138e-03  8.51483e-04  0.00000e+00  3.47944e+00  2.43698e-04  3.59590e+02  3.60054e+02  4.78414e+00  4.83831e+00  1.10669e-01  5.50898e+01  1.42985e+02  1.90432e+05 -4.51264e+05  9.10831e+02  0.00000e+00 -2.59921e+05  2.85745e+04 -2.31346e+05  1.10677e-01  1.00000e+00 -5.49740e+01  0.00000e+00  7.42292e-01 
 4.69084e-03  1.08931e-03  0.00000e+00  3.47944e+00  2.57816e-04  3.59595e+02  3.60054e+02  4.78039e+00  4.83772e+00  1.14063e-01  5.24379e+01  1.35155e+02  2.05803e+05 -4.27260e+05  8.61183e+02  0.00000e+00 -2.20596e+05  2.49446e+04 -1.95651e+05  1.14071e-01  1.00000e+00 -5.23266e+01  0.00000e+00  7.76607e-01 
 4.75174e-03  1.32727e-03  1.05001e-20  3.47944e+00  2.70964e-04  3.59600e+02  3.60054e+02  4.77563e+00  4.83575e+00  1.18281e-01  5.05421e+01  1.28597e+02  2.19856e+05 -4.12749e+05  8.19465e+02  0.00000e+00 -1.92073e+05  2.20601e+04 -1.70013e+05  1.18288e-01  1.00000e+00 -5.04334e+01  0.00000e+00  8.20505e-01 
 4.82366e-03  1.56534e-03  0.00000e+00  3.47944e+00  2.84219e-04  3.59608e+02  3.60054e+02  4.76980e+00  4.83262e+00  1.23345e-01  4.89907e+01  1.22600e+02  2.33033e+05 -4.03249e+05  7.81212e+02  0.00000e+00 -1.69435e+05  1.95482e+04 -1.49886e+05  1.23353e-01  1.00000e+00 -4.88837e+01  0.00000e+00  8.74771e-01 
 4.90611e-03  1.80349e-03  8.81027e-21  3.47944e+00  2.98242e-04  3.59616e+02  3.60054e+02  4.76281e+00  4.82838e+00  1.29235e-01  4.75510e+01  1.16835e+02  2.45129e+05 -3.96254e+05  7.44350e+02  0.00000e+00 -1.50381e+05  1.72568e+04 -1.33124e+05  1.29243e-01  1.00000e+00 -4.74452e+01  0.00000e+00  9.40390e-01 
 4.99859e-03  2.04170e-03  0.00000e+00  3.47944e+00  3.13474e-04  3.59626e+02  3.60054e+02  4.75454e+00  4.82304e+00  1.35960e-01  4.60967e+01  1.11158e+02  2.55669e+05 -3.90321e+05  7.07971e+02  0.00000e+00 -1.33943e+05  1.51278e+04 -1.18815e+05  1.35972e-01  1.00000e+00 -4.59919e+01  0.00000e+00  1.01845e+00 
 5.10055e-03  2.27996e-03  7.58893e-21  3.47944e+00  3.30191e-04  3.59637e+02  3.60054e+02  4.74488e+00  4.81653e+00  1.43451e-01  4.45389e+01  1.05530e+02  2.64174e+05 -3.84364e+05  6.71808e+02  0.00000e+00 -1.19518e+05  1.31507e+04 -1.06367e+05  1.43467e-01  1.00000e+00 -4.44350e+01  0.00000e+00  1.11019e+00 
 5.21143e-03  2.51826e-03  7.09702e-21  3.47944e+00  3.48549e-04  3.59649e+02  3.60054e+02  4.73367e+00  4.80872e+00  1.51712e-01  4.28544e+01  9.99722e+01  2.70228e+05 -3.77887e+05  6.35968e+02  0.00000e+00 -1.07023e+05  1.13331e+04 -9.56900e+04  1.51735e-01  1.00000e+00 -4.27516e+01  0.00000e+00  1.21691e+00 
 5.33068e-03  2.75659e-03  1.33300e-20  3.47944e+00  3.68548e-04  3.59663e+02  3.60054e+02  4.72078e+00  4.79943e+00  1.60625e-01  4.10249e+01  9.45474e+01  2.73678e+05 -3.70442e+05  6.00840e+02  0.00000e+00 -9.61637e+04  9.69023e+03 -8.64734e+04  1.60656e-01  1.00000e+00 -4.09233e+01  0.00000e+00  1.34009e+00 
 5.45775e-03  2.99495e-03  1.25651e-20  3.47944e+00  3.90031e-04  3.59677e+02  3.60054e+02  4.70620e+00  4.78828e+00  1.70129e-01  3.90690e+01  8.93396e+01  2.74539e+05 -3.61995e+05  5.66866e+02  0.00000e+00 -8.68894e+04  8.23175e+03 -7.86576e+04  1.70171e-01  1.00000e+00 -3.89687e+01  0.00000e+00  1.48081e+00 
 5.59212e-03  3.23333e-03  0.00000e+00  3.47944e+00  4.12642e-04  3.59692e+02  3.60054e+02  4.69007e+00  4.77331e+00  1.80012e-01  3.67714e+01  8.44442e+01  2.73296e+05 -3.52588e+05  5.34789e+02  0.00000e+00 -7.87574e+04  6.92026e+03 -7.18371e+04  1.80065e-01  1.00000e+00 -3.66733e+01  0.00000e+00  1.64122e+00 
 5.73326e-03  3.47172e-03  0.00000e+00  3.47944e+00  4.35875e-04  3.59708e+02  3.60054e+02  4.67212e+00  4.75470e+00  1.90245e-01  3.44394e+01  7.99434e+01  2.70448e+05 -3.42748e+05  5.04921e+02  0.00000e+00 -7.17947e+04  5.80515e+03 -6.59896e+04  1.90308e-01  1.00000e+00 -3.43434e+01  0.00000e+00  1.82271e+00 
 5.88069e-03  3.71014e-03 -5.35987e-21  3.47944e+00  4.59051e-04  3.59725e+02  3.60054e+02  4.65197e+00  4.73346e+00  2.00685e-01  3.21924e+01  7.59074e+01  2.66766e+05 -3.32965e+05  4.77781e+02  0.00000e+00 -6.57217e+04  4.88376e+03 -6.08379e+04  2.00752e-01  1.00000e+00 -3.20983e+01  0.00000e+00  2.02767e+00 
 6.03395e-03  3.94857e-03  5.10973e-21  3.47944e+00  4.81434e-04  3.59743e+02  3.60054e+02  4.62949e+00  4.70981e+00  2.11297e-01  3.00899e+01  7.23784e+01  2.62920e+05 -3.23907e+05  4.53834e+02  0.00000e+00 -6.05324e+04  4.13341e+03 -5.63990e+04  2.11367e-01  1.00000e+00 -2.99973e+01  0.00000e+00  2.25791e+00 
 6.19261e-03  4.18701e-03  0.00000e+00  3.47944e+00  5.02237e-04  3.59761e+02  3.60054e+02  4.60459e+00  4.68371e+00  2.21942e-01  2.81384e+01  6.93806e+01  2.59625e+05 -3.16089e+05  4.33113e+02  0.00000e+00 -5.60305e+04  3.52699e+03 -5.25035e+04  2.22011e-01  1.00000e+00 -2.80466e+01  0.00000e+00  2.51611e+00 
 6.35626e-03  4.42546e-03  0.00000e+00  3.47944e+00  5.20788e-04  3.59780e+02  3.60054e+02  4.57717e+00  4.65510e+00  2.32554e-01  2.63440e+01  6.69092e+01  2.57367e+05 -3.09968e+05  4.15652e+02  0.00000e+00 -5.21856e+04  3.03857e+03 -4.91470e+04  2.32621e-01  1.00000e+00 -2.62525e+01  0.00000e+00  2.80439e+00 
 6.52453e-03  4.66392e-03 -8.96437e-21  3.47944e+00  5.36548e-04  3.59800e+02  3.60054e+02  4.54716e+00  4.62391e+00  2.43039e-01  2.46809e+01  6.49442e+01  2.56570e+05 -3.05896e+05  4.01205e+02  0.00000e+00 -4.89244e+04  2.64334e+03 -4.62811e+04  2.43103e-01  1.00000e+00 -2.45891e+01  0.00000e+00  3.12612e+00 
 6.69707e-03  4.90238e-03  1.72236e-20  3.47944e+00  5.49201e-04  3.59820e+02  3.60054e+02  4.51444e+00  4.59004e+00  2.53360e-01  2.31253e+01  6.34480e+01  2.57445e+05 -3.04102e+05  3.89590e+02  0.00000e+00 -4.62672e+04  2.32045e+03 -4.39468e+04  2.53420e-01  1.00000e+00 -2.30324e+01  0.00000e+00  3.48407e+00 
 6.87356e-03  5.14086e-03  8.28595e-21  3.47944e+00  5.58572e-04  3.59840e+02  3.60054e+02  4.47896e+00  4.55340e+00  2.63427e-01  2.16332e+01  6.23837e+01  2.60229e+05 -3.04748e+05  3.80462e+02  0.00000e+00 -4.41387e+04  2.05209e+03 -4.20866e+04  2.63483e-01  1.00000e+00 -2.15386e+01  0.00000e+00  3.88322e+00 
 7.05370e-03  5.37934e-03 -1.59677e-20  3.47944e+00  5.64715e-04  3.59861e+02  3.60054e+02  4.44053e+00  4.51387e+00  2.73275e-01  2.01692e+01  6.17053e+01  2.64943e+05 -3.07949e+05  3.73565e+02  0.00000e+00 -4.26322e+04  1.82346e+03 -4.08088e+04  2.73324e-01  1.00000e+00 -2.00721e+01  0.00000e+00  4.32743e+00 
 7.23722e-03  5.61783e-03  0.00000e+00  3.47944e+00  5.67700e-04  3.59883e+02  3.60055e+02  4.39914e+00  4.47138e+00  2.82787e-01  1.86825e+01  6.13811e+01  2.71810e+05 -3.13770e+05  3.68564e+02  0.00000e+00 -4.15908e+04  1.62282e+03 -3.99680e+04  2.82830e-01  1.00000e+00 -1.85823e+01  0.00000e+00  4.82488e+00 
 7.42387e-03  5.85632e-03  0.00000e+00  3.47944e+00  5.67773e-04  3.59905e+02  3.60055e+02  4.35440e+00  4.42560e+00  2.92082e-01  1.71345e+01  6.13735e+01  2.80805e+05 -3.22398e+05  3.65262e+02  0.00000e+00 -4.12270e+04  1.43982e+03 -3.97872e+04  2.92119e-01  1.00000e+00 -1.70305e+01  0.00000e+00  5.38119e+00 
 7.61342e-03  6.09482e-03  0.00000e+00  3.47944e+00  5.65045e-04  3.59927e+02  3.60055e+02  4.30641e+00  4.37656e+00  3.00999e-01  1.54717e+01  6.16700e+01  2.92326e+05 -3.33985e+05  3.63403e+02  0.00000e+00 -4.12948e+04  1.26650e+03 -4.00283e+04  3.01031e-01  1.00000e+00 -1.53633e+01  0.00000e+00  6.01058e+00 
 7.80566e-03  6.33332e-03  0.00000e+00  3.47944e+00  5.59806e-04  3.59950e+02  3.60055e+02  4.25435e+00  4.32352e+00  3.09744e-01  1.36471e+01  6.22474e+01  3.06392e+05 -3.48936e+05  3.62888e+02  0.00000e+00 -4.21808e+04  1.09433e+03 -4.10865e+04  3.09770e-01  1.00000e+00 -1.35334e+01  0.00000e+00  6.72175e+00 
 8.00039e-03  6.57182e-03  0.00000e+00  3.47944e+00  5.52079e-04  3.59974e+02  3.60055e+02  4.19868e+00  4.26685e+00  3.18112e-01  1.15968e+01  6.31190e+01  3.23752e+05 -3.67684e+05  3.63554e+02  0.00000e+00 -4.35682e+04  9.16300e+02 -4.26519e+04  3.18136e-01  1.00000e+00 -1.14769e+01  0.00000e+00  7.54041e+00 
 8.19744e-03  6.81033e-03  1.31016e-20  3.47944e+00  5.42116e-04  3.59998e+02  3.60055e+02  4.13756e+00  4.20481e+00  3.26348e-01  9.24692e+00  6.42792e+01  3.44605e+05 -3.91001e+05  3.65378e+02  0.00000e+00 -4.60302e+04  7.22805e+02 -4.53074e+04  3.26369e-01  1.00000e+00 -9.11992e+00  0.00000e+00  8.48172e+00 
 8.39664e-03  7.04884e-03  0.00000e+00  3.47944e+00  5.29799e-04  3.60023e+02  3.60056e+02  4.07259e+00  4.13891e+00  3.34283e-01  6.50023e+00  6.57741e+01  3.70278e+05 -4.19995e+05  3.68409e+02  0.00000e+00 -4.93484e+04  5.03939e+02 -4.88445e+04  3.34304e-01  1.00000e+00 -6.36493e+00  0.00000e+00  9.59275e+00 
 8.59784e-03  7.28736e-03  0.00000e+00  3.47944e+00  5.15317e-04  3.60049e+02  3.60056e+02  3.99914e+00  4.06461e+00  3.42172e-01  3.21598e+00  6.76228e+01  4.01474e+05 -4.56166e+05  3.72333e+02  0.00000e+00 -5.43201e+04  2.44214e+02 -5.40758e+04  3.42191e-01  1.00000e+00 -3.07095e+00  0.00000e+00  1.09079e+01 
 8.80092e-03  7.52587e-03  0.00000e+00  3.47944e+00  4.98358e-04  3.60076e+02  3.60056e+02  3.92258e+00  3.98723e+00  3.49787e-01 -1.90538e+00  6.99246e+01  4.40905e+05 -5.01881e+05  3.77584e+02  0.00000e+00 -6.05984e+04 -1.81591e+02 -6.07800e+04  3.49809e-01  1.00000e+00  2.25748e+00  0.00000e+00  1.25288e+01 
 9.00573e-03  7.76439e-03 -1.17014e-20  3.47944e+00  4.79070e-04  3.60105e+02  3.60057e+02  3.83026e+00  3.89410e+00  3.57533e-01 -1.35073e+01  7.27403e+01  4.90109e+05 -5.60731e+05  3.84150e+02  0.00000e+00 -7.02376e+04 -1.13711e+03 -7.13747e+04  3.57553e-01  1.00000e+00  1.38897e+01  0.00000e+00  1.45168e+01 
 9.21216e-03  8.00291e-03  0.00000e+00  3.47944e+00  4.56602e-04  3.60138e+02  3.60057e+02  3.73827e+00  3.80114e+00  3.65122e-01 -2.88976e+01  7.63202e+01  5.56178e+05 -6.39314e+05  3.92895e+02  0.00000e+00 -8.27434e+04 -2.46596e+03 -8.52094e+04  3.65143e-01  1.00000e+00  2.93177e+01  0.00000e+00  1.71507e+01 
 9.42012e-03  8.24144e-03  0.00000e+00  3.47944e+00  4.30876e-04  3.60176e+02  3.60057e+02  3.61392e+00  3.67550e+00  3.72967e-01 -5.06017e+01  8.08776e+01  6.44550e+05 -7.48398e+05  4.03258e+02  0.00000e+00 -1.03445e+05 -4.45623e+03 -1.07902e+05  3.72985e-01  1.00000e+00  5.10693e+01  0.00000e+00  2.06020e+01 
 9.62949e-03  8.47996e-03  0.00000e+00  3.47944e+00  4.00470e-04  3.60223e+02  3.60058e+02  3.49606e+00  3.55336e+00  3.80895e-01 -8.37698e+01  8.70190e+01  7.75932e+05 -9.09052e+05  4.18772e+02  0.00000e+00 -1.32702e+05 -7.74928e+03 -1.40451e+05  3.80914e-01  1.00000e+00  8.43008e+01  0.00000e+00  2.57382e+01 
 9.84019e-03  8.71849e-03  0.00000e+00  3.47944e+00  3.65169e-04  3.60288e+02  3.60059e+02  3.30960e+00  3.36063e+00  3.89089e-01 -1.39631e+02  9.54322e+01  9.75739e+05 -1.16098e+06  4.35512e+02  0.00000e+00 -1.84810e+05 -1.38407e+04 -1.98650e+05  3.89106e-01  1.00000e+00  1.40247e+02  0.00000e+00  3.34197e+01 
 1.00521e-02  8.95702e-03  0.00000e+00  3.47944e+00  3.22143e-04  3.60388e+02  3.60059e+02  3.13342e+00  3.17831e+00  3.97528e-01 -2.51635e+02  1.08179e+02  1.33990e+06 -1.60411e+06  4.61964e+02  0.00000e+00 -2.63754e+05 -2.76345e+04 -2.91388e+05  3.97548e-01  1.00000e+00  2.52386e+02  0.00000e+00  4.78666e+01 
 1.02653e-02  9.19555e-03  0.00000e+00  3.47944e+00  2.70710e-04  3.60580e+02  3.60060e+02  2.79669e+00  2.83435e+00  4.07117e-01 -5.35886e+02  1.28735e+02  2.09449e+06 -2.48892e+06  4.86797e+02  0.00000e+00 -3.93939e+05 -6.83051e+04 -4.62244e+05  4.07131e-01  1.00000e+00  5.36862e+02  0.00000e+00  7.95236e+01 
 1.04795e-02  9.43408e-03  0.00000e+00  3.47944e+00  2.09284e-04  3.61120e+02  3.60061e+02  2.32483e+00  2.34722e+00  4.19598e-01 -5.04750e+03  1.66522e+02  4.35189e+06 -4.43582e+06  5.41163e+02  1.76761e+06  1.68423e+06 -1.69707e+06 -1.28380e+04  4.19630e-01  1.00000e+00  5.04891e+03  3.36742e+03  2.01901e+02 
