# Code_Saturne plot output (1D profile)
#
# Iteration output: 3661
# Time output:      2.30001e+01
#
#COLUMN_TITLES: Distance | X | Y | Z | diameter_Field2 | temp_Field1 | temp_Field2 | Velocity_Field1[Z] | Velocity_Field2[Z] | vol_f_Field2 | mass_trans_Field1 | Xd_Field2 | BK | COAL | COMP | NUCL | W1 | MT | SMBR | ALPBB | CONDNUM | GAMA | GAMANUC | epsilon_Field1
 4.56474e-03  1.39645e-04  0.00000e+00  3.47944e+00  6.85366e-05  3.58730e+02  3.60047e+02  4.29834e+00  4.30905e+00  1.27239e-02  8.27291e+01  5.08577e+02  1.05150e-05 -3.49848e+05  2.50008e+03  0.00000e+00 -3.47348e+05  6.67088e+05  3.19740e+05  1.27188e-02  1.00000e+00 -8.28802e+01  0.00000e+00  3.17725e-01 
 4.57812e-03  3.76525e-04  4.25872e-21  3.47944e+00  8.37704e-05  3.58734e+02  3.60047e+02  4.29788e+00  4.31195e+00  1.31347e-02  6.48441e+01  4.16091e+02  5.07672e-02 -2.57249e+05  2.04218e+03  0.00000e+00 -2.55207e+05  4.14399e+05  1.59192e+05  1.31296e-02  1.00000e+00 -6.49630e+01  0.00000e+00  3.21267e-01 
 4.60371e-03  6.13858e-04  0.00000e+00  3.47944e+00  9.65555e-05  3.58743e+02  3.60047e+02  4.29645e+00  4.31323e+00  1.38781e-02  5.65398e+01  3.60996e+02  4.43521e+00 -2.14617e+05  1.77112e+03  0.00000e+00 -2.12841e+05  2.96690e+05  8.38489e+04  1.38728e-02  1.00000e+00 -5.66442e+01  0.00000e+00  3.28271e-01 
 4.64138e-03  8.51483e-04  0.00000e+00  3.47944e+00  1.07249e-04  3.58758e+02  3.60047e+02  4.29430e+00  4.31328e+00  1.49498e-02  5.27778e+01  3.25001e+02  6.65025e+01 -1.95034e+05  1.59407e+03  0.00000e+00 -1.93373e+05  2.31463e+05  3.80897e+04  1.49440e-02  1.00000e+00 -5.28764e+01  0.00000e+00  3.38828e-01 
 4.69084e-03  1.08931e-03  0.00000e+00  3.47944e+00  1.16643e-04  3.58777e+02  3.60047e+02  4.29140e+00  4.31226e+00  1.63676e-02  5.13681e+01  2.98827e+02  4.34150e+02 -1.87293e+05  1.46525e+03  0.00000e+00 -1.85394e+05  1.89199e+05  3.80559e+03  1.63612e-02  1.00000e+00 -5.14655e+01  0.00000e+00  3.53138e-01 
 4.75174e-03  1.32727e-03  1.05001e-20  3.47944e+00  1.25108e-04  3.58802e+02  3.60047e+02  4.28776e+00  4.31027e+00  1.81643e-02  5.14477e+01  2.78607e+02  1.76386e+03 -1.87218e+05  1.36568e+03  0.00000e+00 -1.84089e+05  1.59207e+05 -2.48821e+04  1.81564e-02  1.00000e+00 -5.15472e+01  0.00000e+00  3.71462e-01 
 4.82366e-03  1.56534e-03  0.00000e+00  3.47944e+00  1.32797e-04  3.58831e+02  3.60047e+02  4.28338e+00  4.30734e+00  2.03751e-02  5.26186e+01  2.62476e+02  5.26150e+03 -1.93063e+05  1.28619e+03  0.00000e+00 -1.86515e+05  1.36772e+05 -4.97437e+04  2.03648e-02  1.00000e+00 -5.27228e+01  0.00000e+00  3.94112e-01 
 4.90611e-03  1.80349e-03  8.81027e-21  3.47944e+00  1.39748e-04  3.58865e+02  3.60047e+02  4.27824e+00  4.30347e+00  2.30582e-02  5.47284e+01  2.49421e+02  1.26138e+04 -2.04397e+05  1.22144e+03  0.00000e+00 -1.90561e+05  1.19438e+05 -7.11230e+04  2.30498e-02  1.00000e+00 -5.48398e+01  0.00000e+00  4.21567e-01 
 4.99859e-03  2.04170e-03  0.00000e+00  3.47944e+00  1.45940e-04  3.58903e+02  3.60047e+02  4.27232e+00  4.29863e+00  2.62612e-02  5.76582e+01  2.38839e+02  2.56705e+04 -2.21139e+05  1.16880e+03  0.00000e+00 -1.94300e+05  1.05799e+05 -8.85006e+04  2.62525e-02  1.00000e+00 -5.77794e+01  0.00000e+00  4.54367e-01 
 5.10055e-03  2.27996e-03  7.58893e-21  3.47944e+00  1.51353e-04  3.58945e+02  3.60047e+02  4.26556e+00  4.29277e+00  3.00509e-02  6.13818e+01  2.30298e+02  4.60867e+04 -2.43790e+05  1.12615e+03  0.00000e+00 -1.96577e+05  9.49066e+04 -1.01670e+05  3.00433e-02  1.00000e+00 -6.15157e+01  0.00000e+00  4.93098e-01 
 5.21143e-03  2.51826e-03  7.09702e-21  3.47944e+00  1.55996e-04  3.58991e+02  3.60047e+02  4.25793e+00  4.28584e+00  3.45011e-02  6.58733e+01  2.23443e+02  7.52044e+04 -2.73075e+05  1.09157e+03  0.00000e+00 -1.96779e+05  8.60755e+04 -1.10703e+05  3.44943e-02  1.00000e+00 -6.60232e+01  0.00000e+00  5.38627e-01 
 5.33068e-03  2.75659e-03  1.33300e-20  3.47944e+00  1.59923e-04  3.59040e+02  3.60047e+02  4.24936e+00  4.27779e+00  3.96914e-02  7.10929e+01  2.17955e+02  1.14036e+05 -3.09878e+05  1.06349e+03  0.00000e+00 -1.94778e+05  7.87741e+04 -1.16004e+05  3.96830e-02  1.00000e+00 -7.12624e+01  0.00000e+00  5.91923e-01 
 5.45775e-03  2.99495e-03  1.25651e-20  3.47944e+00  1.63230e-04  3.59092e+02  3.60047e+02  4.23981e+00  4.26860e+00  4.56893e-02  7.69496e+01  2.13541e+02  1.63358e+05 -3.55087e+05  1.04058e+03  0.00000e+00 -1.90689e+05  7.25796e+04 -1.18109e+05  4.56791e-02  1.00000e+00 -7.71428e+01  0.00000e+00  6.53972e-01 
 5.59212e-03  3.23333e-03  0.00000e+00  3.47944e+00  1.66039e-04  3.59146e+02  3.60047e+02  4.22915e+00  4.25818e+00  5.25740e-02  8.33318e+01  2.09928e+02  2.23928e+05 -4.09727e+05  1.02152e+03  0.00000e+00 -1.84777e+05  6.71595e+04 -1.17618e+05  5.25631e-02  1.00000e+00 -8.35533e+01  0.00000e+00  7.26032e-01 
 5.73326e-03  3.47172e-03  0.00000e+00  3.47944e+00  1.68489e-04  3.59202e+02  3.60047e+02  4.21732e+00  4.24650e+00  6.04158e-02  9.00818e+01  2.06875e+02  2.96576e+05 -4.74747e+05  1.00503e+03  0.00000e+00 -1.77166e+05  6.22666e+04 -1.14899e+05  6.04044e-02  1.00000e+00 -9.03367e+01  0.00000e+00  8.09733e-01 
 5.88069e-03  3.71014e-03 -5.35987e-21  3.47944e+00  1.70727e-04  3.59259e+02  3.60047e+02  4.20419e+00  4.23348e+00  6.92765e-02  9.61248e+01  2.04164e+02  3.81967e+05 -5.50934e+05  9.89969e+02  0.00000e+00 -1.67977e+05  5.71951e+04 -1.10781e+05  6.92656e-02  1.00000e+00 -9.64159e+01  0.00000e+00  9.06862e-01 
 6.03395e-03  3.94857e-03  5.10973e-21  3.47944e+00  1.72886e-04  3.59315e+02  3.60047e+02  4.18961e+00  4.21901e+00  7.92267e-02  1.01546e+02  2.01614e+02  4.80463e+05 -6.39038e+05  9.75398e+02  0.00000e+00 -1.57600e+05  5.21821e+04 -1.05418e+05  7.92177e-02  1.00000e+00 -1.01877e+02  0.00000e+00  1.01953e+00 
 6.19261e-03  4.18701e-03  0.00000e+00  3.47944e+00  1.75087e-04  3.59372e+02  3.60047e+02  4.17342e+00  4.20290e+00  9.02980e-02  1.06291e+02  1.99080e+02  5.92172e+05 -7.39355e+05  9.60396e+02  0.00000e+00 -1.46223e+05  4.73328e+04 -9.88903e+04  9.02894e-02  1.00000e+00 -1.06666e+02  0.00000e+00  1.15060e+00 
 6.35626e-03  4.42546e-03  0.00000e+00  3.47944e+00  1.77450e-04  3.59428e+02  3.60047e+02  4.15538e+00  4.18486e+00  1.02457e-01  1.10002e+02  1.96429e+02  7.15782e+05 -8.51134e+05  9.44596e+02  0.00000e+00 -1.34407e+05  4.26081e+04 -9.17994e+04  1.02452e-01  1.00000e+00 -1.10424e+02  0.00000e+00  1.30238e+00 
 6.52453e-03  4.66392e-03 -8.96437e-21  3.47944e+00  1.80084e-04  3.59483e+02  3.60047e+02  4.13523e+00  4.16473e+00  1.15635e-01  1.12343e+02  1.93557e+02  8.49908e+05 -9.72990e+05  9.27248e+02  0.00000e+00 -1.22155e+05  3.80041e+04 -8.41511e+04  1.15633e-01  1.00000e+00 -1.12815e+02  0.00000e+00  1.47851e+00 
 6.69707e-03  4.90238e-03  1.72236e-20  3.47944e+00  1.83093e-04  3.59536e+02  3.60047e+02  4.11272e+00  4.14224e+00  1.29766e-01  1.13109e+02  1.90376e+02  9.91610e+05 -1.10287e+06  9.08202e+02  0.00000e+00 -1.10348e+05  3.35491e+04 -7.67987e+04  1.29767e-01  1.00000e+00 -1.13630e+02  0.00000e+00  1.68226e+00 
 6.87356e-03  5.14086e-03  8.28595e-21  3.47944e+00  1.86551e-04  3.59586e+02  3.60047e+02  4.08750e+00  4.11706e+00  1.44715e-01  1.12100e+02  1.86848e+02  1.13787e+06 -1.23797e+06  8.86815e+02  0.00000e+00 -9.92055e+04  2.92768e+04 -6.99286e+04  1.44717e-01  1.00000e+00 -1.12673e+02  0.00000e+00  1.91818e+00 
 7.05370e-03  5.37934e-03 -1.59677e-20  3.47944e+00  1.90507e-04  3.59634e+02  3.60047e+02  4.05925e+00  4.08890e+00  1.60305e-01  1.09308e+02  1.82968e+02  1.28459e+06 -1.37477e+06  8.63499e+02  0.00000e+00 -8.93114e+04  2.52508e+04 -6.40606e+04  1.60306e-01  1.00000e+00 -1.09930e+02  0.00000e+00  2.19048e+00 
 7.23722e-03  5.61783e-03  0.00000e+00  3.47944e+00  1.94960e-04  3.59680e+02  3.60047e+02  4.02763e+00  4.05738e+00  1.76364e-01  1.04792e+02  1.78789e+02  1.42803e+06 -1.51024e+06  8.38075e+02  0.00000e+00 -8.13713e+04  2.15153e+04 -5.98560e+04  1.76365e-01  1.00000e+00 -1.05460e+02  0.00000e+00  2.50446e+00 
 7.42387e-03  5.85632e-03  0.00000e+00  3.47944e+00  1.99860e-04  3.59723e+02  3.60047e+02  3.99231e+00  4.02220e+00  1.92595e-01  9.87504e+01  1.74406e+02  1.56475e+06 -1.64078e+06  8.11384e+02  0.00000e+00 -7.52161e+04  1.81256e+04 -5.70905e+04  1.92597e-01  1.00000e+00 -9.94600e+01  0.00000e+00  2.86502e+00 
 7.61342e-03  6.09482e-03  0.00000e+00  3.47944e+00  2.05085e-04  3.59763e+02  3.60047e+02  3.95308e+00  3.98310e+00  2.08829e-01  9.14798e+01  1.69962e+02  1.69309e+06 -1.76538e+06  7.83748e+02  0.00000e+00 -7.14994e+04  1.51057e+04 -5.63937e+04  2.08833e-01  1.00000e+00 -9.22272e+01  0.00000e+00  3.27922e+00 
 7.80566e-03  6.33332e-03  0.00000e+00  3.47944e+00  2.10463e-04  3.59801e+02  3.60047e+02  3.90968e+00  3.93984e+00  2.24781e-01  8.33135e+01  1.65620e+02  1.81258e+06 -1.88313e+06  7.56269e+02  0.00000e+00 -6.97908e+04  1.24691e+04 -5.73218e+04  2.24788e-01  1.00000e+00 -8.40946e+01  0.00000e+00  3.75369e+00 
 8.00039e-03  6.57182e-03  0.00000e+00  3.47944e+00  2.15732e-04  3.59836e+02  3.60047e+02  3.86199e+00  3.89223e+00  2.40301e-01  7.45928e+01  1.61575e+02  1.92589e+06 -1.99681e+06  7.29473e+02  0.00000e+00 -7.01891e+04  1.02028e+04 -5.99863e+04  2.40310e-01  1.00000e+00 -7.54042e+01  0.00000e+00  4.30053e+00 
 8.19744e-03  6.81033e-03  1.31016e-20  3.47944e+00  2.20628e-04  3.59869e+02  3.60047e+02  3.80965e+00  3.83994e+00  2.55255e-01  6.55980e+01  1.57991e+02  2.03619e+06 -2.10978e+06  7.04411e+02  0.00000e+00 -7.28863e+04  8.27513e+03 -6.46112e+04  2.55264e-01  1.00000e+00 -6.64378e+01  0.00000e+00  4.93183e+00 
 8.39664e-03  7.04884e-03  0.00000e+00  3.47944e+00  2.24781e-04  3.59900e+02  3.60048e+02  3.75248e+00  3.78268e+00  2.69565e-01  5.65282e+01  1.55072e+02  2.15115e+06 -2.22950e+06  6.81474e+02  0.00000e+00 -7.76715e+04  6.64436e+03 -7.10271e+04  2.69575e-01  1.00000e+00 -5.73966e+01  0.00000e+00  5.67300e+00 
 8.59784e-03  7.28736e-03  0.00000e+00  3.47944e+00  2.27900e-04  3.59929e+02  3.60048e+02  3.68954e+00  3.71951e+00  2.83263e-01  4.74437e+01  1.52951e+02  2.27695e+06 -2.36343e+06  6.61463e+02  0.00000e+00 -8.58165e+04  5.25276e+03 -8.05637e+04  2.83274e-01  1.00000e+00 -4.83430e+01  0.00000e+00  6.54955e+00 
 8.80092e-03  7.52587e-03  0.00000e+00  3.47944e+00  2.29548e-04  3.59957e+02  3.60048e+02  3.62063e+00  3.65014e+00  2.96340e-01  3.82964e+01  1.51854e+02  2.42741e+06 -2.52515e+06  6.44540e+02  0.00000e+00 -9.70914e+04  4.04541e+03 -9.30460e+04  2.96350e-01  1.00000e+00 -3.92321e+01  0.00000e+00  7.61872e+00 
 9.00573e-03  7.76439e-03 -1.17014e-20  3.47944e+00  2.29441e-04  3.59984e+02  3.60048e+02  3.54292e+00  3.57173e+00  3.08911e-01  2.88265e+01  1.51925e+02  2.61353e+06 -2.72833e+06  6.31320e+02  0.00000e+00 -1.14164e+05  2.94982e+03 -1.11214e+05  3.08919e-01  1.00000e+00 -2.98068e+01  0.00000e+00  8.94036e+00 
 9.21216e-03  8.00291e-03  0.00000e+00  3.47944e+00  2.27068e-04  3.60011e+02  3.60049e+02  3.45744e+00  3.48512e+00  3.21104e-01  1.85883e+01  1.53514e+02  2.86201e+06 -3.00141e+06  6.22170e+02  0.00000e+00 -1.38778e+05  1.88815e+03 -1.36890e+05  3.21106e-01  1.00000e+00 -1.96268e+01  0.00000e+00  1.06568e+01 
 9.42012e-03  8.24144e-03  0.00000e+00  3.47944e+00  2.22090e-04  3.60039e+02  3.60049e+02  3.35500e+00  3.38127e+00  3.33029e-01  6.64474e+00  1.56956e+02  3.20118e+06 -3.37880e+06  6.17203e+02  0.00000e+00 -1.77001e+05  7.36019e+02 -1.76265e+05  3.33019e-01  1.00000e+00 -7.76067e+00  0.00000e+00  1.29398e+01 
 9.62949e-03  8.47996e-03  0.00000e+00  3.47944e+00  2.13756e-04  3.60070e+02  3.60049e+02  3.24205e+00  3.26639e+00  3.44898e-01 -1.92033e+01  1.63076e+02  3.70595e+06 -3.94146e+06  6.17931e+02  0.00000e+00 -2.34897e+05 -1.58468e+03 -2.36482e+05  3.44870e-01  1.00000e+00  1.66545e+01  0.00000e+00  1.62444e+01 
 9.84019e-03  8.71849e-03  0.00000e+00  3.47944e+00  2.01438e-04  3.60107e+02  3.60050e+02  3.09032e+00  3.11242e+00  3.56680e-01 -7.08599e+01  1.73049e+02  4.48529e+06 -4.82099e+06  6.25316e+02  0.00000e+00 -3.35075e+05 -6.64013e+03 -3.41716e+05  3.56646e-01  1.00000e+00  6.80133e+01  0.00000e+00  2.12292e+01 
 1.00521e-02  8.95702e-03  0.00000e+00  3.47944e+00  1.83398e-04  3.60163e+02  3.60050e+02  2.91901e+00  2.93879e+00  3.68511e-01 -1.73246e+02  1.90074e+02  5.91390e+06 -6.41359e+06  6.43508e+02  0.00000e+00 -4.99046e+05 -1.76383e+04 -5.16684e+05  3.68462e-01  1.00000e+00  1.69928e+02  0.00000e+00  3.03094e+01 
 1.02653e-02  9.19555e-03  0.00000e+00  3.47944e+00  1.58484e-04  3.60280e+02  3.60051e+02  2.64677e+00  2.66370e+00  3.81007e-01 -4.61003e+02  2.19956e+02  8.96007e+06 -9.73911e+06  6.67887e+02  0.00000e+00 -7.78368e+05 -5.30800e+04 -8.31448e+05  3.80958e-01  1.00000e+00  4.56895e+02  0.00000e+00  5.05038e+01 
 1.04795e-02  9.43408e-03  0.00000e+00  3.47944e+00  1.25756e-04  3.60678e+02  3.60052e+02  2.21410e+00  2.22429e+00  3.97898e-01 -5.07009e+03  2.77203e+02  1.82877e+07 -1.87575e+07  7.30835e+02  2.55813e+06  2.08910e+06 -2.18630e+06 -9.71971e+04  3.97843e-01  1.00000e+00  5.06448e+03  3.17974e+03  1.27997e+02 
