# Code_Saturne plot output (1D profile)
#
# Iteration output: 4587
# Time output:      2.30010e+01
#
#COLUMN_TITLES: Distance | X | Y | Z | diameter_Field2 | temp_Field1 | temp_Field2 | Velocity_Field1[Z] | Velocity_Field2[Z] | vol_f_Field2 | mass_trans_Field1 | Xd_Field2 | BK | COAL | COMP | NUCL | W1 | MT | SMBR | ALPBB | CONDNUM | GAMA | GAMANUC | epsilon_Field1
 4.56474e-03  1.39645e-04  0.00000e+00  3.47944e+00  2.07749e-04  3.59898e+02  3.60057e+02  5.11840e+00  5.16648e+00  1.57135e-01  3.37998e+01  1.67703e+02  2.34798e+05 -5.85860e+05  1.17286e+03  0.00000e+00 -3.49889e+05  6.46609e+03 -3.43423e+05  1.57134e-01  1.00000e+00 -3.39755e+01  0.00000e+00  7.09295e-01 
 4.57812e-03  3.76525e-04  4.25872e-21  3.47944e+00  2.22081e-04  3.59899e+02  3.60057e+02  5.11761e+00  5.16956e+00  1.58398e-01  3.10526e+01  1.56880e+02  2.62429e+05 -5.27974e+05  1.09741e+03  0.00000e+00 -2.64448e+05  5.51297e+03 -2.58935e+05  1.58396e-01  1.00000e+00 -3.12150e+01  0.00000e+00  7.18548e-01 
 4.60371e-03  6.13858e-04  0.00000e+00  3.47944e+00  2.31424e-04  3.59901e+02  3.60057e+02  5.11583e+00  5.17014e+00  1.60631e-01  2.95564e+01  1.50547e+02  2.82924e+05 -5.02114e+05  1.05338e+03  0.00000e+00 -2.18137e+05  4.96578e+03 -2.13171e+05  1.60628e-01  1.00000e+00 -2.97128e+01  0.00000e+00  7.36646e-01 
 4.64138e-03  8.51483e-04  0.00000e+00  3.47944e+00  2.37460e-04  3.59904e+02  3.60056e+02  5.11322e+00  5.16887e+00  1.63856e-01  2.87434e+01  1.46720e+02  3.01932e+05 -4.95124e+05  1.02663e+03  0.00000e+00 -1.92166e+05  4.61415e+03 -1.87552e+05  1.63854e-01  1.00000e+00 -2.88981e+01  0.00000e+00  7.63957e-01 
 4.69084e-03  1.08931e-03  0.00000e+00  3.47944e+00  2.41756e-04  3.59908e+02  3.60056e+02  5.10968e+00  5.16607e+00  1.68101e-01  2.82577e+01  1.44113e+02  3.22379e+05 -4.99381e+05  1.00826e+03  0.00000e+00 -1.75993e+05  4.34352e+03 -1.71650e+05  1.68101e-01  1.00000e+00 -2.84133e+01  0.00000e+00  8.01022e-01 
 4.75174e-03  1.32727e-03  1.05001e-20  3.47944e+00  2.45166e-04  3.59913e+02  3.60056e+02  5.10514e+00  5.16193e+00  1.73347e-01  2.79157e+01  1.42108e+02  3.45450e+05 -5.11304e+05  9.93968e+02  0.00000e+00 -1.64860e+05  4.10379e+03 -1.60756e+05  1.73350e-01  1.00000e+00 -2.80740e+01  0.00000e+00  8.48642e-01 
 4.82366e-03  1.56534e-03  0.00000e+00  3.47944e+00  2.48192e-04  3.59918e+02  3.60056e+02  5.09950e+00  5.15648e+00  1.79583e-01  2.76099e+01  1.40376e+02  3.71561e+05 -5.29005e+05  9.81473e+02  0.00000e+00 -1.56462e+05  3.87084e+03 -1.52591e+05  1.79588e-01  1.00000e+00 -2.77720e+01  0.00000e+00  9.07797e-01 
 4.90611e-03  1.80349e-03  8.81027e-21  3.47944e+00  2.51142e-04  3.59925e+02  3.60056e+02  5.09264e+00  5.14970e+00  1.86763e-01  2.72648e+01  1.38727e+02  4.00735e+05 -5.51244e+05  9.69437e+02  0.00000e+00 -1.49539e+05  3.63317e+03 -1.45906e+05  1.86771e-01  1.00000e+00 -2.74317e+01  0.00000e+00  9.79688e-01 
 4.99859e-03  2.04170e-03  0.00000e+00  3.47944e+00  2.54222e-04  3.59932e+02  3.60056e+02  5.08442e+00  5.14149e+00  1.94839e-01  2.68252e+01  1.37046e+02  4.32699e+05 -5.77086e+05  9.57026e+02  0.00000e+00 -1.43429e+05  3.38589e+03 -1.40043e+05  1.94849e-01  1.00000e+00 -2.69977e+01  0.00000e+00  1.06567e+00 
 5.10055e-03  2.27996e-03  7.58893e-21  3.47944e+00  2.57574e-04  3.59939e+02  3.60056e+02  5.07467e+00  5.13174e+00  2.03723e-01  2.62480e+01  1.35263e+02  4.66972e+05 -6.05644e+05  9.43722e+02  0.00000e+00 -1.37728e+05  3.12836e+03 -1.34600e+05  2.03739e-01  1.00000e+00 -2.64262e+01  0.00000e+00  1.16730e+00 
 5.21143e-03  2.51826e-03  7.09702e-21  3.47944e+00  2.61292e-04  3.59947e+02  3.60056e+02  5.06322e+00  5.12028e+00  2.13328e-01  2.55038e+01  1.33338e+02  5.02880e+05 -6.36093e+05  9.29251e+02  0.00000e+00 -1.32283e+05  2.86266e+03 -1.29421e+05  2.13353e-01  1.00000e+00 -2.56881e+01  0.00000e+00  1.28622e+00 
 5.33068e-03  2.75659e-03  1.33300e-20  3.47944e+00  2.65435e-04  3.59955e+02  3.60056e+02  5.04988e+00  5.10694e+00  2.23495e-01  2.45691e+01  1.31257e+02  5.39675e+05 -6.67387e+05  9.13489e+02  0.00000e+00 -1.26799e+05  2.59250e+03 -1.24206e+05  2.23527e-01  1.00000e+00 -2.47594e+01  0.00000e+00  1.42421e+00 
 5.45775e-03  2.99495e-03  1.25651e-20  3.47944e+00  2.70027e-04  3.59964e+02  3.60056e+02  5.03445e+00  5.09155e+00  2.34084e-01  2.34393e+01  1.29025e+02  5.76524e+05 -6.98611e+05  8.96464e+02  0.00000e+00 -1.21191e+05  2.32265e+03 -1.18869e+05  2.34115e-01  1.00000e+00 -2.36353e+01  0.00000e+00  1.58303e+00 
 5.59212e-03  3.23333e-03  0.00000e+00  3.47944e+00  2.75056e-04  3.59973e+02  3.60056e+02  5.01678e+00  5.07394e+00  2.44987e-01  2.21287e+01  1.26666e+02  6.12615e+05 -7.29145e+05  8.78237e+02  0.00000e+00 -1.15652e+05  2.05834e+03 -1.13593e+05  2.45023e-01  1.00000e+00 -2.23300e+01  0.00000e+00  1.76449e+00 
 5.73326e-03  3.47172e-03  0.00000e+00  3.47944e+00  2.80481e-04  3.59981e+02  3.60056e+02  4.99673e+00  5.05398e+00  2.56125e-01  2.06599e+01  1.24216e+02  6.47192e+05 -7.58463e+05  8.59073e+02  0.00000e+00 -1.10412e+05  1.80418e+03 -1.08608e+05  2.56160e-01  1.00000e+00 -2.08661e+01  0.00000e+00  1.97025e+00 
 5.88069e-03  3.71014e-03 -5.35987e-21  3.47944e+00  2.86209e-04  3.59990e+02  3.60056e+02  4.97420e+00  5.03155e+00  2.67289e-01  1.90579e+01  1.21730e+02  6.79995e+05 -7.86043e+05  8.39291e+02  0.00000e+00 -1.05209e+05  1.56458e+03 -1.03644e+05  2.67317e-01  1.00000e+00 -1.92685e+01  0.00000e+00  2.20276e+00 
 6.03395e-03  3.94857e-03  5.10973e-21  3.47944e+00  2.92129e-04  3.59999e+02  3.60056e+02  4.94911e+00  5.00657e+00  2.78390e-01  1.73589e+01  1.19264e+02  7.10573e+05 -8.11711e+05  8.19330e+02  0.00000e+00 -1.00319e+05  1.34235e+03 -9.89765e+04  2.78411e-01  1.00000e+00 -1.75735e+01  0.00000e+00  2.46290e+00 
 6.19261e-03  4.18701e-03  0.00000e+00  3.47944e+00  2.98081e-04  3.60007e+02  3.60056e+02  4.92143e+00  4.97899e+00  2.89229e-01  1.55924e+01  1.16883e+02  7.39197e+05 -8.35395e+05  7.99491e+02  0.00000e+00 -9.53987e+04  1.13921e+03 -9.42595e+04  2.89246e-01  1.00000e+00 -1.58104e+01  0.00000e+00  2.75297e+00 
 6.35626e-03  4.42546e-03  0.00000e+00  3.47944e+00  3.03899e-04  3.60015e+02  3.60056e+02  4.89114e+00  4.94876e+00  2.99783e-01  1.37981e+01  1.14645e+02  7.66077e+05 -8.57640e+05  7.80459e+02  0.00000e+00 -9.07825e+04  9.55951e+02 -8.98265e+04  2.99795e-01  1.00000e+00 -1.40194e+01  0.00000e+00  3.07461e+00 
 6.52453e-03  4.66392e-03 -8.96437e-21  3.47944e+00  3.09392e-04  3.60023e+02  3.60057e+02  4.85826e+00  4.91587e+00  3.09989e-01  1.20018e+01  1.12610e+02  7.91967e+05 -8.79205e+05  7.62407e+02  0.00000e+00 -8.64765e+04  7.91928e+02 -8.56845e+04  3.09996e-01  1.00000e+00 -1.22261e+01  0.00000e+00  3.43109e+00 
 6.69707e-03  4.90238e-03  1.72236e-20  3.47944e+00  3.14383e-04  3.60031e+02  3.60057e+02  4.82275e+00  4.88024e+00  3.19849e-01  1.02273e+01  1.10822e+02  8.17521e+05 -9.00971e+05  7.45835e+02  0.00000e+00 -8.27040e+04  6.45919e+02 -8.20581e+04  3.19852e-01  1.00000e+00 -1.04549e+01  0.00000e+00  3.82524e+00 
 6.87356e-03  5.14086e-03  8.28595e-21  3.47944e+00  3.18682e-04  3.60038e+02  3.60057e+02  4.78460e+00  4.84182e+00  3.29337e-01  8.48465e+00  1.09328e+02  8.43830e+05 -9.24025e+05  7.30876e+02  0.00000e+00 -7.94639e+04  5.15909e+02 -7.89480e+04  3.29338e-01  1.00000e+00 -8.71570e+00  0.00000e+00  4.26220e+00 
 7.05370e-03  5.37934e-03 -1.59677e-20  3.47944e+00  3.22142e-04  3.60045e+02  3.60057e+02  4.74369e+00  4.80050e+00  3.38446e-01  6.78053e+00  1.08154e+02  8.71773e+05 -9.49320e+05  7.17779e+02  0.00000e+00 -7.68299e+04  3.99758e+02 -7.64301e+04  3.38446e-01  1.00000e+00 -7.01556e+00  0.00000e+00  4.74650e+00 
 7.23722e-03  5.61783e-03  0.00000e+00  3.47944e+00  3.24604e-04  3.60052e+02  3.60057e+02  4.69994e+00  4.75614e+00  3.47167e-01  5.11255e+00  1.07334e+02  9.02689e+05 -9.78165e+05  7.06600e+02  0.00000e+00 -7.47692e+04  2.95060e+02 -7.44741e+04  3.47168e-01  1.00000e+00 -5.35219e+00  0.00000e+00  5.28673e+00 
 7.42387e-03  5.85632e-03  0.00000e+00  3.47944e+00  3.25989e-04  3.60058e+02  3.60057e+02  4.65305e+00  4.70846e+00  3.55549e-01  3.47482e+00  1.06878e+02  9.37476e+05 -1.01167e+06  6.97457e+02  0.00000e+00 -7.34992e+04  1.99391e+02 -7.32998e+04  3.55548e-01  1.00000e+00 -3.71993e+00  0.00000e+00  5.89054e+00 
 7.61342e-03  6.09482e-03  0.00000e+00  3.47944e+00  3.26176e-04  3.60064e+02  3.60057e+02  4.60291e+00  4.65728e+00  3.63578e-01  1.85621e+00  1.06818e+02  9.77821e+05 -1.05144e+06  6.90297e+02  0.00000e+00 -7.29334e+04  1.10421e+02 -7.28230e+04  3.63577e-01  1.00000e+00 -2.10779e+00  0.00000e+00  6.57273e+00 
 7.80566e-03  6.33332e-03  0.00000e+00  3.47944e+00  3.25150e-04  3.60070e+02  3.60058e+02  4.54893e+00  4.60206e+00  3.71360e-01  2.41181e-01  1.07155e+02  1.02459e+06 -1.09886e+06  6.85170e+02  0.00000e+00 -7.35809e+04  2.57494e+01 -7.35551e+04  3.71359e-01  1.00000e+00 -5.00457e-01  0.00000e+00  7.34528e+00 
 8.00039e-03  6.57182e-03  0.00000e+00  3.47944e+00  3.22798e-04  3.60075e+02  3.60058e+02  4.49112e+00  4.54274e+00  3.78809e-01 -3.16877e+00  1.07937e+02  1.08040e+06 -1.15608e+06  6.82024e+02  0.00000e+00 -7.49957e+04 -1.31451e+02 -7.51272e+04  3.78806e-01  1.00000e+00  2.58721e+00  0.00000e+00  8.23527e+00 
 8.19744e-03  6.81033e-03  1.31016e-20  3.47944e+00  3.19156e-04  3.60080e+02  3.60058e+02  4.42814e+00  4.47806e+00  3.86095e-01 -6.94711e+00  1.09169e+02  1.14634e+06 -1.22520e+06  6.80906e+02  0.00000e+00 -7.81799e+04 -3.19814e+02 -7.84997e+04  3.86090e-01  1.00000e+00  6.34317e+00  0.00000e+00  9.26232e+00 
 8.39664e-03  7.04884e-03  0.00000e+00  3.47944e+00  3.14060e-04  3.60085e+02  3.60058e+02  4.36077e+00  4.40871e+00  3.93090e-01 -1.10226e+01  1.10941e+02  1.22702e+06 -1.31018e+06  6.81869e+02  0.00000e+00 -8.24852e+04 -5.22982e+02 -8.30082e+04  3.93084e-01  1.00000e+00  1.03921e+01  0.00000e+00  1.04793e+01 
 8.59784e-03  7.28736e-03  0.00000e+00  3.47944e+00  3.07547e-04  3.60090e+02  3.60059e+02  4.28538e+00  4.33113e+00  3.99983e-01 -1.56500e+01  1.13291e+02  1.32476e+06 -1.41502e+06  6.85014e+02  0.00000e+00 -8.95754e+04 -7.56973e+02 -9.03324e+04  3.99972e-01  1.00000e+00  1.49881e+01  0.00000e+00  1.19233e+01 
 8.80092e-03  7.52587e-03  0.00000e+00  3.47944e+00  2.99359e-04  3.60096e+02  3.60059e+02  4.20572e+00  4.24898e+00  4.06716e-01 -2.12136e+01  1.16390e+02  1.44833e+06 -1.54839e+06  6.90858e+02  0.00000e+00 -9.93701e+04 -1.04676e+03 -1.00417e+05  4.06703e-01  1.00000e+00  2.05135e+01  0.00000e+00  1.37047e+01 
 9.00573e-03  7.76439e-03 -1.17014e-20  3.47944e+00  2.89507e-04  3.60102e+02  3.60059e+02  4.11124e+00  4.15180e+00  4.13445e-01 -2.83799e+01  1.20352e+02  1.60411e+06 -1.71934e+06  6.98875e+02  0.00000e+00 -1.14535e+05 -1.43436e+03 -1.15969e+05  4.13426e-01  1.00000e+00  2.76335e+01  0.00000e+00  1.59126e+01 
 9.21216e-03  8.00291e-03  0.00000e+00  3.47944e+00  2.77536e-04  3.60110e+02  3.60060e+02  4.01530e+00  4.05289e+00  4.20114e-01 -3.83304e+01  1.25545e+02  1.81308e+06 -1.94894e+06  7.10584e+02  0.00000e+00 -1.35154e+05 -1.99964e+03 -1.37154e+05  4.20091e-01  1.00000e+00  3.75256e+01  0.00000e+00  1.88311e+01 
 9.42012e-03  8.24144e-03  0.00000e+00  3.47944e+00  2.63414e-04  3.60120e+02  3.60060e+02  3.88546e+00  3.91930e+00  4.26907e-01 -5.33724e+01  1.32277e+02  2.09172e+06 -2.26272e+06  7.26861e+02  0.00000e+00 -1.70270e+05 -2.90040e+03 -1.73170e+05  4.26879e-01  1.00000e+00  5.24942e+01  0.00000e+00  2.26509e+01 
 9.62949e-03  8.47996e-03  0.00000e+00  3.47944e+00  2.46254e-04  3.60136e+02  3.60061e+02  3.76234e+00  3.79273e+00  4.33792e-01 -7.85783e+01  1.41495e+02  2.50398e+06 -2.72673e+06  7.49865e+02  0.00000e+00 -2.22001e+05 -4.51358e+03 -2.26515e+05  4.33764e-01  1.00000e+00  7.76009e+01  0.00000e+00  2.82703e+01 
 9.84019e-03  8.71849e-03  0.00000e+00  3.47944e+00  2.25763e-04  3.60161e+02  3.60061e+02  3.57191e+00  3.59865e+00  4.40871e-01 -1.26458e+02  1.54340e+02  3.13224e+06 -3.44816e+06  7.77566e+02  0.00000e+00 -3.15138e+05 -7.82441e+03 -3.22962e+05  4.40847e-01  1.00000e+00  1.25345e+02  0.00000e+00  3.67002e+01 
 1.00521e-02  8.95702e-03  0.00000e+00  3.47944e+00  2.00016e-04  3.60209e+02  3.60062e+02  3.38562e+00  3.40907e+00  4.48251e-01 -2.36766e+02  1.74209e+02  4.28188e+06 -4.74946e+06  8.23230e+02  0.00000e+00 -4.66759e+05 -1.63123e+04 -4.83071e+05  4.48246e-01  1.00000e+00  2.35443e+02  0.00000e+00  5.24001e+01 
 1.02653e-02  9.19555e-03  0.00000e+00  3.47944e+00  1.68486e-04  3.60325e+02  3.60063e+02  3.04214e+00  3.06162e+00  4.56152e-01 -5.72692e+02  2.06813e+02  6.68914e+06 -7.42934e+06  8.72632e+02  0.00000e+00 -7.39333e+05 -4.61507e+04 -7.85484e+05  4.56173e-01  1.00000e+00  5.71028e+02  0.00000e+00  8.66543e+01 
 1.04795e-02  9.43408e-03  0.00000e+00  3.47944e+00  1.29963e-04  3.60751e+02  3.60064e+02  2.55672e+00  2.56840e+00  4.67714e-01 -5.78265e+03  2.68121e+02  1.40724e+07 -1.45004e+07  9.81181e+02  2.27070e+06  1.84376e+06 -1.90927e+06 -6.55046e+04  4.67774e-01  1.00000e+00  5.78035e+03  3.45032e+03  2.18316e+02 
