# Code_Saturne plot output (1D profile)
#
# Iteration output: 4704
# Time output:      2.30006e+01
#
#COLUMN_TITLES: Distance | X | Y | Z | diameter_Field2 | temp_Field1 | temp_Field2 | Velocity_Field1[Z] | Velocity_Field2[Z] | vol_f_Field2 | mass_trans_Field1 | Xd_Field2 | BK | COAL | COMP | NUCL | W1 | MT | SMBR | ALPBB | CONDNUM | GAMA | GAMANUC | epsilon_Field1
 4.56474e-03  1.39645e-04  0.00000e+00  3.47944e+00  2.94930e-04  3.59911e+02  3.60057e+02  5.20225e+00  5.27064e+00  2.03522e-01  2.61069e+01  1.18126e+02  4.02336e+05 -6.56121e+05  8.63280e+02  0.00000e+00 -2.52922e+05  3.06606e+03 -2.49856e+05  2.03508e-01  1.00000e+00 -2.62433e+01  0.00000e+00  9.84545e-01 
 4.57812e-03  3.76525e-04  4.25872e-21  3.47944e+00  3.03842e-04  3.59912e+02  3.60057e+02  5.20125e+00  5.27202e+00  2.04659e-01  2.51467e+01  1.14661e+02  4.01958e+05 -6.27899e+05  8.37967e+02  0.00000e+00 -2.25103e+05  2.85078e+03 -2.22253e+05  2.04646e-01  1.00000e+00 -2.52787e+01  0.00000e+00  9.96302e-01 
 4.60371e-03  6.13858e-04  0.00000e+00  3.47944e+00  3.10415e-04  3.59913e+02  3.60057e+02  5.19892e+00  5.27122e+00  2.06554e-01  2.44954e+01  1.12233e+02  4.05354e+05 -6.13976e+05  8.20249e+02  0.00000e+00 -2.07802e+05  2.69330e+03 -2.05108e+05  2.06541e-01  1.00000e+00 -2.46251e+01  0.00000e+00  1.01933e+00 
 4.64138e-03  8.51483e-04  0.00000e+00  3.47944e+00  3.16016e-04  3.59915e+02  3.60057e+02  5.19545e+00  5.26885e+00  2.09287e-01  2.39773e+01  1.10244e+02  4.11853e+05 -6.08276e+05  8.05618e+02  0.00000e+00 -1.95618e+05  2.55597e+03 -1.93062e+05  2.09274e-01  1.00000e+00 -2.41060e+01  0.00000e+00  1.05405e+00 
 4.69084e-03  1.08931e-03  0.00000e+00  3.47944e+00  3.21605e-04  3.59918e+02  3.60057e+02  5.19072e+00  5.26507e+00  2.12854e-01  2.34763e+01  1.08328e+02  4.20698e+05 -6.06894e+05  7.91417e+02  0.00000e+00 -1.85404e+05  2.41809e+03 -1.82986e+05  2.12841e-01  1.00000e+00 -2.36046e+01  0.00000e+00  1.10101e+00 
 4.75174e-03  1.32727e-03  1.05001e-20  3.47944e+00  3.27647e-04  3.59921e+02  3.60057e+02  5.18466e+00  5.25993e+00  2.17222e-01  2.29350e+01  1.06330e+02  4.31250e+05 -6.07850e+05  7.76519e+02  0.00000e+00 -1.75824e+05  2.27242e+03 -1.73552e+05  2.17209e-01  1.00000e+00 -2.30631e+01  0.00000e+00  1.16100e+00 
 4.82366e-03  1.56534e-03  0.00000e+00  3.47944e+00  3.34394e-04  3.59925e+02  3.60057e+02  5.17718e+00  5.25342e+00  2.22362e-01  2.23225e+01  1.04185e+02  4.42856e+05 -6.09962e+05  7.60445e+02  0.00000e+00 -1.66346e+05  2.11734e+03 -1.64228e+05  2.22348e-01  1.00000e+00 -2.24506e+01  0.00000e+00  1.23494e+00 
 4.90611e-03  1.80349e-03  8.81027e-21  3.47944e+00  3.41973e-04  3.59930e+02  3.60057e+02  5.16818e+00  5.24547e+00  2.28204e-01  2.16204e+01  1.01876e+02  4.54894e+05 -6.12364e+05  7.43066e+02  0.00000e+00 -1.56726e+05  1.95432e+03 -1.54772e+05  2.28190e-01  1.00000e+00 -2.17486e+01  0.00000e+00  1.32389e+00 
 4.99859e-03  2.04170e-03  0.00000e+00  3.47944e+00  3.50437e-04  3.59935e+02  3.60057e+02  5.15752e+00  5.23595e+00  2.34692e-01  2.08218e+01  9.94152e+01  4.66744e+05 -6.14452e+05  7.24459e+02  0.00000e+00 -1.46984e+05  1.78628e+03 -1.45198e+05  2.34680e-01  1.00000e+00 -2.09499e+01  0.00000e+00  1.42898e+00 
 5.10055e-03  2.27996e-03  7.58893e-21  3.47944e+00  3.59766e-04  3.59941e+02  3.60057e+02  5.14509e+00  5.22477e+00  2.41729e-01  1.99263e+01  9.68375e+01  4.77895e+05 -6.15751e+05  7.04858e+02  0.00000e+00 -1.37151e+05  1.61709e+03 -1.35534e+05  2.41717e-01  1.00000e+00 -2.00543e+01  0.00000e+00  1.55146e+00 
 5.21143e-03  2.51826e-03  7.09702e-21  3.47944e+00  3.69877e-04  3.59947e+02  3.60057e+02  5.13081e+00  5.21181e+00  2.49238e-01  1.89427e+01  9.41903e+01  4.87941e+05 -6.16023e+05  6.84618e+02  0.00000e+00 -1.27397e+05  1.45064e+03 -1.25947e+05  2.49226e-01  1.00000e+00 -1.90705e+01  0.00000e+00  1.69255e+00 
 5.33068e-03  2.75659e-03  1.33300e-20  3.47944e+00  3.80614e-04  3.59954e+02  3.60057e+02  5.11453e+00  5.19691e+00  2.57108e-01  1.78840e+01  9.15333e+01  4.96691e+05 -6.15187e+05  6.64151e+02  0.00000e+00 -1.17832e+05  1.29066e+03 -1.16541e+05  2.57097e-01  1.00000e+00 -1.80113e+01  0.00000e+00  1.85353e+00 
 5.45775e-03  2.99495e-03  1.25651e-20  3.47944e+00  3.91762e-04  3.59961e+02  3.60057e+02  5.09621e+00  5.17998e+00  2.65278e-01  1.67691e+01  8.89287e+01  5.04099e+05 -6.13448e+05  6.43933e+02  0.00000e+00 -1.08705e+05  1.14006e+03 -1.07565e+05  2.65267e-01  1.00000e+00 -1.68961e+01  0.00000e+00  2.03552e+00 
 5.59212e-03  3.23333e-03  0.00000e+00  3.47944e+00  4.03019e-04  3.59968e+02  3.60057e+02  5.07586e+00  5.16097e+00  2.73570e-01  1.56141e+01  8.64450e+01  5.10501e+05 -6.11022e+05  6.24330e+02  0.00000e+00 -9.98970e+04  1.00114e+03 -9.88958e+04  2.73558e-01  1.00000e+00 -1.57407e+01  0.00000e+00  2.24006e+00 
 5.73326e-03  3.47172e-03  0.00000e+00  3.47944e+00  4.14068e-04  3.59976e+02  3.60057e+02  5.05366e+00  5.13956e+00  2.82006e-01  1.44204e+01  8.41383e+01  5.16185e+05 -6.08607e+05  6.05865e+02  0.00000e+00 -9.18163e+04  8.73556e+02 -9.09427e+04  2.81992e-01  1.00000e+00 -1.45464e+01  0.00000e+00  2.46837e+00 
 5.88069e-03  3.71014e-03 -5.35987e-21  3.47944e+00  4.24547e-04  3.59983e+02  3.60057e+02  5.02950e+00  5.11512e+00  2.90454e-01  1.32090e+01  8.20617e+01  5.21857e+05 -6.06780e+05  5.88772e+02  0.00000e+00 -8.43337e+04  7.58298e+02 -8.35754e+04  2.90442e-01  1.00000e+00 -1.33347e+01  0.00000e+00  2.72312e+00 
 6.03395e-03  3.94857e-03  5.10973e-21  3.47944e+00  4.34137e-04  3.59991e+02  3.60057e+02  5.00301e+00  5.08783e+00  2.98921e-01  1.20146e+01  8.02492e+01  5.27900e+05 -6.06205e+05  5.73442e+02  0.00000e+00 -7.77314e+04  6.55995e+02 -7.70754e+04  2.98913e-01  1.00000e+00 -1.21403e+01  0.00000e+00  3.00517e+00 
 6.19261e-03  4.18701e-03  0.00000e+00  3.47944e+00  4.42517e-04  3.60000e+02  3.60057e+02  4.97415e+00  5.05791e+00  3.07260e-01  1.08385e+01  7.87297e+01  5.35052e+05 -6.07367e+05  5.59916e+02  0.00000e+00 -7.17545e+04  5.65466e+02 -7.11890e+04  3.07253e-01  1.00000e+00 -1.09646e+01  0.00000e+00  3.31726e+00 
 6.35626e-03  4.42546e-03  0.00000e+00  3.47944e+00  4.49473e-04  3.60008e+02  3.60057e+02  4.94284e+00  5.02547e+00  3.15495e-01  9.68234e+00  7.75114e+01  5.43734e+05 -6.10879e+05  5.48392e+02  0.00000e+00 -6.65960e+04  4.85056e+02 -6.61110e+04  3.15490e-01  1.00000e+00 -9.80936e+00  0.00000e+00  3.66168e+00 
 6.52453e-03  4.66392e-03 -8.96437e-21  3.47944e+00  4.54819e-04  3.60016e+02  3.60057e+02  4.90907e+00  4.99053e+00  3.23576e-01  8.53719e+00  7.66006e+01  5.54521e+05 -6.17261e+05  5.38805e+02  0.00000e+00 -6.22008e+04  4.12893e+02 -6.17879e+04  3.23572e-01  1.00000e+00 -8.66573e+00  0.00000e+00  4.04230e+00 
 6.69707e-03  4.90238e-03  1.72236e-20  3.47944e+00  4.58487e-04  3.60024e+02  3.60057e+02  4.87271e+00  4.95303e+00  3.31510e-01  7.39401e+00  7.59880e+01  5.67721e+05 -6.26895e+05  5.31127e+02  0.00000e+00 -5.86428e+04  3.47148e+02 -5.82956e+04  3.31507e-01  1.00000e+00 -7.52471e+00  0.00000e+00  4.46233e+00 
 6.87356e-03  5.14086e-03  8.28595e-21  3.47944e+00  4.60408e-04  3.60032e+02  3.60057e+02  4.83372e+00  4.91290e+00  3.39211e-01  6.23796e+00  7.56712e+01  5.83901e+05 -6.40145e+05  5.25242e+02  0.00000e+00 -5.57197e+04  2.86072e+02 -5.54336e+04  3.39208e-01  1.00000e+00 -6.37144e+00  0.00000e+00  4.92755e+00 
 7.05370e-03  5.37934e-03 -1.59677e-20  3.47944e+00  4.60649e-04  3.60041e+02  3.60057e+02  4.79195e+00  4.87003e+00  3.46740e-01  5.05601e+00  7.56320e+01  6.03237e+05 -6.57364e+05  5.21014e+02  0.00000e+00 -5.36065e+04  2.27977e+02 -5.33785e+04  3.46737e-01  1.00000e+00 -5.19295e+00  0.00000e+00  5.44283e+00 
 7.23722e-03  5.61783e-03  0.00000e+00  3.47944e+00  4.59202e-04  3.60049e+02  3.60058e+02  4.74727e+00  4.82426e+00  3.54007e-01  3.83153e+00  7.58706e+01  6.26433e+05 -6.78998e+05  5.18330e+02  0.00000e+00 -5.20460e+04  1.71362e+02 -5.18747e+04  3.54001e-01  1.00000e+00 -3.97261e+00  0.00000e+00  6.01781e+00 
 7.42387e-03  5.85632e-03  0.00000e+00  3.47944e+00  4.56199e-04  3.60057e+02  3.60058e+02  4.69934e+00  4.77528e+00  3.61130e-01  2.54788e+00  7.63704e+01  6.53632e+05 -7.05541e+05  5.17076e+02  0.00000e+00 -5.13916e+04  1.14660e+02 -5.12769e+04  3.61123e-01  1.00000e+00 -2.69385e+00  0.00000e+00  6.65950e+00 
 7.61342e-03  6.09482e-03  0.00000e+00  3.47944e+00  4.51613e-04  3.60065e+02  3.60058e+02  4.64812e+00  4.72299e+00  3.67984e-01  1.18581e+00  7.71462e+01  6.85971e+05 -7.37758e+05  5.17179e+02  0.00000e+00 -5.12695e+04  5.64341e+01 -5.12130e+04  3.67976e-01  1.00000e+00 -1.33746e+00  0.00000e+00  7.38464e+00 
 7.80566e-03  6.33332e-03  0.00000e+00  3.47944e+00  4.45602e-04  3.60073e+02  3.60058e+02  4.59290e+00  4.66669e+00  3.74755e-01 -7.11642e-01  7.81874e+01  7.23654e+05 -7.76484e+05  5.18576e+02  0.00000e+00 -5.23115e+04 -1.51106e+01 -5.23266e+04  3.74744e-01  1.00000e+00  3.59843e-01  0.00000e+00  8.20402e+00 
 8.00039e-03  6.57182e-03  0.00000e+00  3.47944e+00  4.38055e-04  3.60081e+02  3.60058e+02  4.53371e+00  4.60630e+00  3.81263e-01 -4.32765e+00  7.95347e+01  7.68663e+05 -8.23194e+05  5.21276e+02  0.00000e+00 -5.40098e+04 -1.66247e+02 -5.41761e+04  3.81252e-01  1.00000e+00  3.95954e+00  0.00000e+00  9.14740e+00 
 8.19744e-03  6.81033e-03  1.31016e-20  3.47944e+00  4.29106e-04  3.60089e+02  3.60059e+02  4.46937e+00  4.54055e+00  3.87694e-01 -8.36989e+00  8.11939e+01  8.21682e+05 -8.79441e+05  5.25338e+02  0.00000e+00 -5.72337e+04 -3.36496e+02 -5.75702e+04  3.87683e-01  1.00000e+00  7.98305e+00  0.00000e+00  1.02338e+01 
 8.39664e-03  7.04884e-03  0.00000e+00  3.47944e+00  4.18515e-04  3.60097e+02  3.60059e+02  4.40232e+00  4.47128e+00  3.93898e-01 -1.30164e+01  8.32491e+01  8.86576e+05 -9.48413e+05  5.30939e+02  0.00000e+00 -6.13068e+04 -5.36314e+02 -6.18431e+04  3.93886e-01  1.00000e+00  1.26080e+01  0.00000e+00  1.15289e+01 
 8.59784e-03  7.28736e-03  0.00000e+00  3.47944e+00  4.06453e-04  3.60106e+02  3.60059e+02  4.32583e+00  4.39141e+00  4.00152e-01 -1.85362e+01  8.57203e+01  9.65136e+05 -1.03307e+06  5.37364e+02  0.00000e+00 -6.73952e+04 -7.80528e+02 -6.81757e+04  4.00139e-01  1.00000e+00  1.81031e+01  0.00000e+00  1.30827e+01 
 8.80092e-03  7.52587e-03  0.00000e+00  3.47944e+00  3.92559e-04  3.60115e+02  3.60060e+02  4.24548e+00  4.30726e+00  4.06258e-01 -2.53866e+01  8.87548e+01  1.06414e+06 -1.13975e+06  5.45671e+02  0.00000e+00 -7.50645e+04 -1.09594e+03 -7.61605e+04  4.06244e-01  1.00000e+00  2.49241e+01  0.00000e+00  1.50128e+01 
 9.00573e-03  7.76439e-03 -1.17014e-20  3.47944e+00  3.76972e-04  3.60127e+02  3.60060e+02  4.14792e+00  4.20559e+00  4.12499e-01 -3.42981e+01  9.24253e+01  1.18723e+06 -1.27553e+06  5.55697e+02  0.00000e+00 -8.77416e+04 -1.52429e+03 -8.92659e+04  4.12484e-01  1.00000e+00  3.38005e+01  0.00000e+00  1.73886e+01 
 9.21216e-03  8.00291e-03  0.00000e+00  3.47944e+00  3.58944e-04  3.60140e+02  3.60061e+02  4.05163e+00  4.10486e+00  4.18652e-01 -4.66078e+01  9.70682e+01  1.35252e+06 -1.45683e+06  5.68684e+02  0.00000e+00 -1.03739e+05 -2.14972e+03 -1.05889e+05  4.18638e-01  1.00000e+00  4.60661e+01  0.00000e+00  2.05585e+01 
 9.42012e-03  8.24144e-03  0.00000e+00  3.47944e+00  3.38629e-04  3.60157e+02  3.60061e+02  3.91613e+00  3.96404e+00  4.25027e-01 -6.47259e+01  1.02893e+02  1.57094e+06 -1.70406e+06  5.84842e+02  0.00000e+00 -1.32532e+05 -3.12464e+03 -1.35657e+05  4.25013e-01  1.00000e+00  6.41296e+01  0.00000e+00  2.46808e+01 
 9.62949e-03  8.47996e-03  0.00000e+00  3.47944e+00  3.14626e-04  3.60181e+02  3.60062e+02  3.79385e+00  3.83676e+00  4.31430e-01 -9.40540e+01  1.10743e+02  1.89579e+06 -2.06953e+06  6.06791e+02  0.00000e+00 -1.73135e+05 -4.82440e+03 -1.77959e+05  4.31421e-01  1.00000e+00  9.33836e+01  0.00000e+00  3.08084e+01 
 9.84019e-03  8.71849e-03  0.00000e+00  3.47944e+00  2.86784e-04  3.60218e+02  3.60062e+02  3.59438e+00  3.63216e+00  4.38029e-01 -1.46908e+02  1.21497e+02  2.38917e+06 -2.63973e+06  6.32150e+02  0.00000e+00 -2.49925e+05 -8.15777e+03 -2.58082e+05  4.38024e-01  1.00000e+00  1.46136e+02  0.00000e+00  3.99448e+01 
 1.00521e-02  8.95702e-03  0.00000e+00  3.47944e+00  2.52138e-04  3.60284e+02  3.60063e+02  3.40833e+00  3.44118e+00  4.44897e-01 -2.62053e+02  1.38193e+02  3.30323e+06 -3.68229e+06  6.75035e+02  0.00000e+00 -3.78382e+05 -1.63237e+04 -3.94706e+05  4.44890e-01  1.00000e+00  2.61120e+02  0.00000e+00  5.70937e+01 
 1.02653e-02  9.19555e-03  0.00000e+00  3.47944e+00  2.09787e-04  3.60428e+02  3.60064e+02  3.04957e+00  3.07666e+00  4.52449e-01 -5.88909e+02  1.66094e+02  5.24953e+06 -5.89667e+06  7.21204e+02  0.00000e+00 -6.46425e+05 -4.34200e+04 -6.89845e+05  4.52433e-01  1.00000e+00  5.87706e+02  0.00000e+00  9.44754e+01 
 1.04795e-02  9.43408e-03  0.00000e+00  3.47944e+00  1.56515e-04  3.60904e+02  3.60065e+02  2.55719e+00  2.57341e+00  4.63287e-01 -5.67442e+03  2.22630e+02  1.15550e+07 -1.21647e+07  8.34555e+02  2.23013e+06  1.62120e+06 -1.66408e+06 -4.28792e+04  4.63269e-01  1.00000e+00  5.67266e+03  3.48156e+03  2.38615e+02 
