# Code_Saturne plot output (1D profile)
#
# Iteration output: 4570
# Time output:      2.30004e+01
#
#COLUMN_TITLES: Distance | X | Y | Z | diameter_Field2 | temp_Field1 | temp_Field2 | Velocity_Field1[Z] | Velocity_Field2[Z] | vol_f_Field2 | mass_trans_Field1 | Xd_Field2 | BK | COAL | COMP | NUCL | W1 | MT | SMBR | ALPBB | CONDNUM | GAMA | GAMANUC | epsilon_Field1
 4.56474e-03  1.39645e-04  0.00000e+00  3.47944e+00  2.06721e-04  3.59948e+02  3.60054e+02  5.08055e+00  5.12748e+00  1.57079e-01  2.39978e+01  1.68548e+02  3.11118e+05 -8.73050e+05  1.15637e+03  0.00000e+00 -5.60775e+05  1.29130e+04 -5.47862e+05  1.57063e-01  1.00000e+00 -2.41413e+01  0.00000e+00  7.47258e-01 
 4.57812e-03  3.76525e-04  4.25872e-21  3.47944e+00  2.33816e-04  3.59948e+02  3.60054e+02  5.07938e+00  5.13363e+00  1.58300e-01  2.04552e+01  1.49016e+02  3.64415e+05 -7.12865e+05  1.02327e+03  0.00000e+00 -3.47426e+05  9.65625e+03 -3.37770e+05  1.58282e-01  1.00000e+00 -2.05784e+01  0.00000e+00  7.57151e-01 
 4.60371e-03  6.13858e-04  0.00000e+00  3.47944e+00  2.48739e-04  3.59950e+02  3.60054e+02  5.07739e+00  5.13554e+00  1.60458e-01  1.89432e+01  1.40077e+02  3.90263e+05 -6.53479e+05  9.62437e+02  0.00000e+00 -2.62254e+05  8.29331e+03 -2.53961e+05  1.60440e-01  1.00000e+00 -1.90585e+01  0.00000e+00  7.76327e-01 
 4.64138e-03  8.51483e-04  0.00000e+00  3.47944e+00  2.57430e-04  3.59952e+02  3.60054e+02  5.07456e+00  5.13477e+00  1.63521e-01  1.82019e+01  1.35347e+02  4.11162e+05 -6.33983e+05  9.30136e+02  0.00000e+00 -2.21891e+05  7.55617e+03 -2.14335e+05  1.63503e-01  1.00000e+00 -1.83146e+01  0.00000e+00  8.05167e-01 
 4.69084e-03  1.08931e-03  0.00000e+00  3.47944e+00  2.63249e-04  3.59954e+02  3.60054e+02  5.07073e+00  5.13208e+00  1.67568e-01  1.77719e+01  1.32356e+02  4.33157e+05 -6.33567e+05  9.09550e+02  0.00000e+00 -1.99500e+05  7.04129e+03 -1.92459e+05  1.67550e-01  1.00000e+00 -1.78844e+01  0.00000e+00  8.44157e-01 
 4.75174e-03  1.32727e-03  1.05001e-20  3.47944e+00  2.67781e-04  3.59958e+02  3.60054e+02  5.06582e+00  5.12784e+00  1.72545e-01  1.74587e+01  1.30116e+02  4.57966e+05 -6.44003e+05  8.93973e+02  0.00000e+00 -1.85143e+05  6.60517e+03 -1.78538e+05  1.72527e-01  1.00000e+00 -1.75725e+01  0.00000e+00  8.94144e-01 
 4.82366e-03  1.56534e-03  0.00000e+00  3.47944e+00  2.71877e-04  3.59962e+02  3.60054e+02  5.05976e+00  5.12220e+00  1.78466e-01  1.71669e+01  1.28155e+02  4.85877e+05 -6.61476e+05  8.80200e+02  0.00000e+00 -1.74718e+05  6.18610e+03 -1.68532e+05  1.78449e-01  1.00000e+00 -1.72829e+01  0.00000e+00  9.56096e-01 
 4.90611e-03  1.80349e-03  8.81027e-21  3.47944e+00  2.76002e-04  3.59966e+02  3.60054e+02  5.05240e+00  5.11517e+00  1.85269e-01  1.68367e+01  1.26240e+02  5.16666e+05 -6.83659e+05  8.66610e+02  0.00000e+00 -1.66126e+05  5.75861e+03 -1.60368e+05  1.85252e-01  1.00000e+00 -1.69554e+01  0.00000e+00  1.03124e+00 
 4.99859e-03  2.04170e-03  0.00000e+00  3.47944e+00  2.80446e-04  3.59971e+02  3.60054e+02  5.04362e+00  5.10669e+00  1.92918e-01  1.64306e+01  1.24240e+02  5.49715e+05 -7.08998e+05  8.52318e+02  0.00000e+00 -1.58430e+05  5.31321e+03 -1.53117e+05  1.92901e-01  1.00000e+00 -1.65522e+01  0.00000e+00  1.12093e+00 
 5.10055e-03  2.27996e-03  7.58893e-21  3.47944e+00  2.85381e-04  3.59976e+02  3.60054e+02  5.03327e+00  5.09666e+00  2.01320e-01  1.59213e+01  1.22091e+02  5.84229e+05 -7.36114e+05  8.36863e+02  0.00000e+00 -1.51047e+05  4.85040e+03 -1.46197e+05  2.01304e-01  1.00000e+00 -1.60461e+01  0.00000e+00  1.22670e+00 
 5.21143e-03  2.51826e-03  7.09702e-21  3.47944e+00  2.90919e-04  3.59982e+02  3.60054e+02  5.02117e+00  5.08493e+00  2.10396e-01  1.52936e+01  1.19767e+02  6.19219e+05 -7.63835e+05  8.20045e+02  0.00000e+00 -1.43796e+05  4.37555e+03 -1.39420e+05  2.10382e-01  1.00000e+00 -1.54215e+01  0.00000e+00  1.35015e+00 
 5.33068e-03  2.75659e-03  1.33300e-20  3.47944e+00  2.97107e-04  3.59988e+02  3.60054e+02  5.00714e+00  5.07133e+00  2.20012e-01  1.45398e+01  1.17273e+02  6.53700e+05 -7.90993e+05  8.01856e+02  0.00000e+00 -1.36491e+05  3.89763e+03 -1.32594e+05  2.19999e-01  1.00000e+00 -1.46706e+01  0.00000e+00  1.49299e+00 
 5.45775e-03  2.99495e-03  1.25651e-20  3.47944e+00  3.03951e-04  3.59995e+02  3.60054e+02  4.99102e+00  5.05570e+00  2.30090e-01  1.36645e+01  1.14632e+02  6.86652e+05 -8.16752e+05  7.82457e+02  0.00000e+00 -1.29317e+05  3.42631e+03 -1.25891e+05  2.30077e-01  1.00000e+00 -1.37980e+01  0.00000e+00  1.65687e+00 
 5.59212e-03  3.23333e-03  0.00000e+00  3.47944e+00  3.11389e-04  3.60001e+02  3.60054e+02  4.97266e+00  5.03790e+00  2.40423e-01  1.26759e+01  1.11894e+02  7.17417e+05 -8.40171e+05  7.62147e+02  0.00000e+00 -1.21992e+05  2.97202e+03 -1.19020e+05  2.40405e-01  1.00000e+00 -1.28117e+01  0.00000e+00  1.84361e+00 
 5.73326e-03  3.47172e-03  0.00000e+00  3.47944e+00  3.19324e-04  3.60008e+02  3.60054e+02  4.95193e+00  5.01777e+00  2.50969e-01  1.15950e+01  1.09114e+02  7.45276e+05 -8.61044e+05  7.41308e+02  0.00000e+00 -1.15027e+05  2.54261e+03 -1.12484e+05  2.50947e-01  1.00000e+00 -1.17328e+01  0.00000e+00  2.05446e+00 
 5.88069e-03  3.71014e-03 -5.35987e-21  3.47944e+00  3.27578e-04  3.60015e+02  3.60054e+02  4.92878e+00  4.99523e+00  2.61512e-01  1.04408e+01  1.06364e+02  7.70358e+05 -8.79135e+05  7.20295e+02  0.00000e+00 -1.08057e+05  2.14497e+03 -1.05912e+05  2.61488e-01  1.00000e+00 -1.05803e+01  0.00000e+00  2.29172e+00 
 6.03395e-03  3.94857e-03  5.10973e-21  3.47944e+00  3.35946e-04  3.60021e+02  3.60054e+02  4.90313e+00  4.97020e+00  2.71963e-01  9.23807e+00  1.03715e+02  7.92665e+05 -8.94733e+05  6.99790e+02  0.00000e+00 -1.01368e+05  1.78278e+03 -9.95849e+04  2.71943e-01  1.00000e+00 -9.37894e+00  0.00000e+00  2.55625e+00 
 6.19261e-03  4.18701e-03  0.00000e+00  3.47944e+00  3.44161e-04  3.60028e+02  3.60054e+02  4.87501e+00  4.94262e+00  2.82169e-01  8.00639e+00  1.01240e+02  8.12990e+05 -9.08421e+05  6.80141e+02  0.00000e+00 -9.47510e+04  1.45721e+03 -9.32938e+04  2.82154e-01  1.00000e+00 -8.14851e+00  0.00000e+00  2.85025e+00 
 6.35626e-03  4.42546e-03  0.00000e+00  3.47944e+00  3.51971e-04  3.60035e+02  3.60054e+02  4.84438e+00  4.91245e+00  2.92146e-01  6.76691e+00  9.89937e+01  8.32014e+05 -9.21312e+05  6.61917e+02  0.00000e+00 -8.86360e+04  1.16707e+03 -8.74690e+04  2.92134e-01  1.00000e+00 -6.91031e+00  0.00000e+00  3.17563e+00 
 6.52453e-03  4.66392e-03 -8.96437e-21  3.47944e+00  3.59091e-04  3.60041e+02  3.60054e+02  4.81129e+00  4.87965e+00  3.01841e-01  5.53029e+00  9.70309e+01  8.50947e+05 -9.34620e+05  6.45269e+02  0.00000e+00 -8.30281e+04  9.09283e+02 -8.21188e+04  3.01827e-01  1.00000e+00 -5.67510e+00  0.00000e+00  3.53591e+00 
 6.69707e-03  4.90238e-03  1.72236e-20  3.47944e+00  3.65294e-04  3.60047e+02  3.60054e+02  4.77566e+00  4.84414e+00  3.11249e-01  4.30347e+00  9.53836e+01  8.70705e+05 -9.49481e+05  6.30536e+02  0.00000e+00 -7.81448e+04  6.79704e+02 -7.74651e+04  3.11233e-01  1.00000e+00 -4.44999e+00  0.00000e+00  3.93375e+00 
 6.87356e-03  5.14086e-03  8.28595e-21  3.47944e+00  3.70344e-04  3.60053e+02  3.60054e+02  4.73746e+00  4.80580e+00  3.20317e-01  3.08612e+00  9.40833e+01  8.92656e+05 -9.67157e+05  6.17791e+02  0.00000e+00 -7.38831e+04  4.73548e+02 -7.34095e+04  3.20300e-01  1.00000e+00 -3.23472e+00  0.00000e+00  4.37456e+00 
 7.05370e-03  5.37934e-03 -1.59677e-20  3.47944e+00  3.74111e-04  3.60059e+02  3.60055e+02  4.69655e+00  4.76451e+00  3.29073e-01  1.87511e+00  9.31364e+01  9.17651e+05 -9.88690e+05  6.07121e+02  0.00000e+00 -7.04319e+04  2.85841e+02 -7.01461e+04  3.29056e-01  1.00000e+00 -2.02631e+00  0.00000e+00  4.86295e+00 
 7.23722e-03  5.61783e-03  0.00000e+00  3.47944e+00  3.76446e-04  3.60065e+02  3.60055e+02  4.65284e+00  4.72011e+00  3.37471e-01  6.63353e-01  9.25588e+01  9.47119e+05 -1.01532e+06  5.98477e+02  0.00000e+00 -6.76010e+04  1.11785e+02 -6.74893e+04  3.37455e-01  1.00000e+00 -8.17742e-01  0.00000e+00  5.40791e+00 
 7.42387e-03  5.85632e-03  0.00000e+00  3.47944e+00  3.77352e-04  3.60071e+02  3.60055e+02  4.60597e+00  4.67229e+00  3.45603e-01 -1.33208e+00  9.23372e+01  9.81665e+05 -1.04800e+06  5.91792e+02  0.00000e+00 -6.57424e+04 -1.31001e+02 -6.58734e+04  3.45588e-01  1.00000e+00  9.83762e-01  0.00000e+00  6.01689e+00 
 7.61342e-03  6.09482e-03  0.00000e+00  3.47944e+00  3.76739e-04  3.60076e+02  3.60055e+02  4.55585e+00  4.62091e+00  3.53391e-01 -4.14389e+00  9.24877e+01  1.02305e+06 -1.08807e+06  5.86950e+02  0.00000e+00 -6.44351e+04 -4.93797e+02 -6.49289e+04  3.53377e-01  1.00000e+00  3.78563e+00  0.00000e+00  6.70539e+00 
 7.80566e-03  6.33332e-03  0.00000e+00  3.47944e+00  3.74692e-04  3.60082e+02  3.60055e+02  4.50183e+00  4.56537e+00  3.60985e-01 -7.08776e+00  9.29935e+01  1.07177e+06 -1.13668e+06  5.83861e+02  0.00000e+00 -6.43305e+04 -8.62520e+02 -6.51930e+04  3.60971e-01  1.00000e+00  6.71777e+00  0.00000e+00  7.48486e+00 
 8.00039e-03  6.57182e-03  0.00000e+00  3.47944e+00  3.71092e-04  3.60087e+02  3.60056e+02  4.44403e+00  4.50573e+00  3.68261e-01 -1.02537e+01  9.38960e+01  1.13064e+06 -1.19604e+06  5.82491e+02  0.00000e+00 -6.48172e+04 -1.25426e+03 -6.60715e+04  3.68247e-01  1.00000e+00  9.86997e+00  0.00000e+00  8.38317e+00 
 8.19744e-03  6.81033e-03  1.31016e-20  3.47944e+00  3.66060e-04  3.60092e+02  3.60056e+02  4.38092e+00  4.44054e+00  3.75403e-01 -1.37727e+01  9.51873e+01  1.20053e+06 -1.26801e+06  5.82740e+02  0.00000e+00 -6.68883e+04 -1.68999e+03 -6.85782e+04  3.75390e-01  1.00000e+00  1.33729e+01  0.00000e+00  9.42006e+00 
 8.39664e-03  7.04884e-03  0.00000e+00  3.47944e+00  3.59407e-04  3.60098e+02  3.60056e+02  4.31357e+00  4.37079e+00  3.82302e-01 -1.78284e+01  9.69498e+01  1.28615e+06 -1.35681e+06  5.84866e+02  0.00000e+00 -7.00785e+04 -2.20043e+03 -7.22789e+04  3.82289e-01  1.00000e+00  1.74096e+01  0.00000e+00  1.06467e+01 
 8.59784e-03  7.28736e-03  0.00000e+00  3.47944e+00  3.51256e-04  3.60104e+02  3.60056e+02  4.23788e+00  4.29248e+00  3.89152e-01 -2.27007e+01  9.92003e+01  1.38988e+06 -1.46617e+06  5.88253e+02  0.00000e+00 -7.56943e+04 -2.82806e+03 -7.85223e+04  3.89140e-01  1.00000e+00  2.22596e+01  0.00000e+00  1.21058e+01 
 8.80092e-03  7.52587e-03  0.00000e+00  3.47944e+00  3.41272e-04  3.60110e+02  3.60057e+02  4.15839e+00  4.21010e+00  3.95780e-01 -2.88390e+01  1.02103e+02  1.52128e+06 -1.60478e+06  5.93796e+02  0.00000e+00 -8.29042e+04 -3.64787e+03 -8.65521e+04  3.95767e-01  1.00000e+00  2.83710e+01  0.00000e+00  1.39082e+01 
 9.00573e-03  7.76439e-03 -1.17014e-20  3.47944e+00  3.29595e-04  3.60119e+02  3.60057e+02  4.06334e+00  4.11186e+00  4.02490e-01 -3.69727e+01  1.05721e+02  1.68530e+06 -1.78125e+06  6.01244e+02  0.00000e+00 -9.53548e+04 -4.77478e+03 -1.00130e+05  4.02478e-01  1.00000e+00  3.64724e+01  0.00000e+00  1.61308e+01 
 9.21216e-03  8.00291e-03  0.00000e+00  3.47944e+00  3.15595e-04  3.60129e+02  3.60057e+02  3.96736e+00  4.01242e+00  4.09070e-01 -4.84504e+01  1.10412e+02  1.90572e+06 -2.01733e+06  6.12096e+02  0.00000e+00 -1.11003e+05 -6.44508e+03 -1.17448e+05  4.09056e-01  1.00000e+00  4.79096e+01  0.00000e+00  1.90774e+01 
 9.42012e-03  8.24144e-03  0.00000e+00  3.47944e+00  2.99383e-04  3.60143e+02  3.60058e+02  3.83949e+00  3.88080e+00  4.15848e-01 -6.57426e+01  1.16392e+02  2.19888e+06 -2.33776e+06  6.24861e+02  0.00000e+00 -1.38259e+05 -9.08866e+03 -1.47348e+05  4.15835e-01  1.00000e+00  6.51511e+01  0.00000e+00  2.29594e+01 
 9.62949e-03  8.47996e-03  0.00000e+00  3.47944e+00  2.79835e-04  3.60163e+02  3.60058e+02  3.71389e+00  3.75035e+00  4.22691e-01 -9.43235e+01  1.24524e+02  2.63206e+06 -2.80899e+06  6.45663e+02  0.00000e+00 -1.76281e+05 -1.37529e+04 -1.90034e+05  4.22673e-01  1.00000e+00  9.36638e+01  0.00000e+00  2.86813e+01 
 9.84019e-03  8.71849e-03  0.00000e+00  3.47944e+00  2.56886e-04  3.60196e+02  3.60059e+02  3.52039e+00  3.55242e+00  4.29694e-01 -1.46759e+02  1.35650e+02  3.28140e+06 -3.53074e+06  6.68300e+02  0.00000e+00 -2.48671e+05 -2.29735e+04 -2.71645e+05  4.29674e-01  1.00000e+00  1.46007e+02  0.00000e+00  3.71293e+01 
 1.00521e-02  8.95702e-03  0.00000e+00  3.47944e+00  2.28064e-04  3.60256e+02  3.60060e+02  3.33627e+00  3.36473e+00  4.36922e-01 -2.62756e+02  1.52795e+02  4.46762e+06 -4.82188e+06  7.05677e+02  0.00000e+00 -3.53546e+05 -4.56461e+04 -3.99192e+05  4.36892e-01  1.00000e+00  2.61861e+02  0.00000e+00  5.29287e+01 
 1.02653e-02  9.19555e-03  0.00000e+00  3.47944e+00  1.93151e-04  3.60393e+02  3.60061e+02  2.99223e+00  3.01635e+00  4.44793e-01 -5.93861e+02  1.80416e+02  6.92121e+06 -7.39836e+06  7.42858e+02  0.00000e+00 -4.76408e+05 -1.19854e+05 -5.96262e+05  4.44756e-01  1.00000e+00  5.92736e+02  0.00000e+00  8.76090e+01 
 1.04795e-02  9.43408e-03  0.00000e+00  3.47944e+00  1.52559e-04  3.60860e+02  3.60062e+02  2.50589e+00  2.52112e+00  4.55935e-01 -5.48488e+03  2.28425e+02  1.40100e+07 -1.31546e+07  8.11320e+02  1.59615e+06  2.45231e+06 -2.49152e+06 -3.92118e+04  4.55884e-01  1.00000e+00  5.48334e+03  3.35941e+03  2.21204e+02 
