# Code_Saturne plot output (1D profile)
#
# Iteration output: 6005
# Time output:      2.30008e+01
#
#COLUMN_TITLES: Distance | X | Y | Z | diameter_Field2 | temp_Field1 | temp_Field2 | Velocity_Field1[Z] | Velocity_Field2[Z] | vol_f_Field2 | mass_trans_Field1 | Xd_Field2 | BK | COAL | COMP | NUCL | W1 | MT | SMBR | ALPBB | CONDNUM | GAMA | GAMANUC | epsilon_Field1
 4.56474e-03  1.39645e-04  0.00000e+00  3.47944e+00  8.25444e-04  3.60220e+02  3.60078e+02  6.48988e+00  6.63898e+00  4.88304e-01 -2.37395e+01  4.21617e+01  7.46593e+04 -1.21007e+05  5.65033e+02  0.00000e+00 -4.57829e+04 -7.74605e+02 -4.65575e+04  4.88319e-01  1.00000e+00  2.37710e+01  0.00000e+00  4.48631e+00 
 4.57812e-03  3.76525e-04  4.25872e-21  3.47944e+00  8.36416e-04  3.60220e+02  3.60078e+02  6.48837e+00  6.63927e+00  4.88482e-01 -2.33321e+01  4.16086e+01  7.33073e+04 -1.15854e+05  5.57626e+02  0.00000e+00 -4.19889e+04 -7.51051e+02 -4.27400e+04  4.88497e-01  1.00000e+00  2.33631e+01  0.00000e+00  4.51383e+00 
 4.60371e-03  6.13858e-04  0.00000e+00  3.47944e+00  8.45653e-04  3.60220e+02  3.60078e+02  6.48450e+00  6.63664e+00  4.88735e-01 -2.30000e+01  4.11541e+01  7.23679e+04 -1.11496e+05  5.51369e+02  0.00000e+00 -3.85764e+04 -7.31896e+02 -3.93083e+04  4.88750e-01  1.00000e+00  2.30306e+01  0.00000e+00  4.56704e+00 
 4.64138e-03  8.51483e-04  0.00000e+00  3.47944e+00  8.53747e-04  3.60220e+02  3.60078e+02  6.47888e+00  6.63208e+00  4.89133e-01 -2.27222e+01  4.07640e+01  7.17277e+04 -1.07607e+05  5.45849e+02  0.00000e+00 -3.53332e+04 -7.15621e+02 -3.60488e+04  4.89147e-01  1.00000e+00  2.27524e+01  0.00000e+00  4.64623e+00 
 4.69084e-03  1.08931e-03  0.00000e+00  3.47944e+00  8.60661e-04  3.60219e+02  3.60078e+02  6.47145e+00  6.62555e+00  4.89625e-01 -2.24941e+01  4.04365e+01  7.13802e+04 -1.04136e+05  5.41045e+02  0.00000e+00 -3.22153e+04 -7.02043e+02 -3.29173e+04  4.89638e-01  1.00000e+00  2.25241e+01  0.00000e+00  4.75177e+00 
 4.75174e-03  1.32727e-03  1.05001e-20  3.47944e+00  8.66025e-04  3.60219e+02  3.60078e+02  6.46226e+00  6.61707e+00  4.90229e-01 -2.23256e+01  4.01860e+01  7.13557e+04 -1.01189e+05  5.37147e+02  0.00000e+00 -2.92961e+04 -6.91619e+02 -2.99877e+04  4.90241e-01  1.00000e+00  2.23554e+01  0.00000e+00  4.88426e+00 
 4.82366e-03  1.56534e-03  0.00000e+00  3.47944e+00  8.69381e-04  3.60219e+02  3.60078e+02  6.45129e+00  6.60658e+00  4.90930e-01 -2.22284e+01  4.00310e+01  7.17035e+04 -9.88951e+04  5.34399e+02  0.00000e+00 -2.66572e+04 -6.84973e+02 -2.73422e+04  4.90942e-01  1.00000e+00  2.22582e+01  0.00000e+00  5.04447e+00 
 4.90611e-03  1.80349e-03  8.81027e-21  3.47944e+00  8.70359e-04  3.60218e+02  3.60078e+02  6.43854e+00  6.59402e+00  4.91734e-01 -2.22127e+01  3.99860e+01  7.24665e+04 -9.73598e+04  5.32988e+02  0.00000e+00 -2.43603e+04 -6.82607e+02 -2.50429e+04  4.91746e-01  1.00000e+00  2.22426e+01  0.00000e+00  5.23358e+00 
 4.99859e-03  2.04170e-03  0.00000e+00  3.47944e+00  8.68761e-04  3.60218e+02  3.60078e+02  6.42397e+00  6.57934e+00  4.92650e-01 -2.22843e+01  4.00596e+01  7.36744e+04 -9.66434e+04  5.33015e+02  0.00000e+00 -2.24359e+04 -6.84795e+02 -2.31207e+04  4.92661e-01  1.00000e+00  2.23144e+01  0.00000e+00  5.45283e+00 
 5.10055e-03  2.27996e-03  7.58893e-21  3.47944e+00  8.64567e-04  3.60217e+02  3.60078e+02  6.40749e+00  6.56245e+00  4.93678e-01 -2.24447e+01  4.02540e+01  7.53483e+04 -9.67628e+04  5.34493e+02  0.00000e+00 -2.08800e+04 -6.91636e+02 -2.15716e+04  4.93688e-01  1.00000e+00  2.24752e+01  0.00000e+00  5.70412e+00 
 5.21143e-03  2.51826e-03  7.09702e-21  3.47944e+00  8.57926e-04  3.60217e+02  3.60078e+02  6.38908e+00  6.54335e+00  4.94833e-01 -2.26924e+01  4.05656e+01  7.74919e+04 -9.77040e+04  5.37379e+02  0.00000e+00 -1.96748e+04 -7.03041e+02 -2.03778e+04  4.94843e-01  1.00000e+00  2.27233e+01  0.00000e+00  5.98910e+00 
 5.33068e-03  2.75659e-03  1.33300e-20  3.47944e+00  8.49086e-04  3.60216e+02  3.60078e+02  6.36865e+00  6.52196e+00  4.96121e-01 -2.30231e+01  4.09881e+01  8.01109e+04 -9.94299e+04  5.41514e+02  0.00000e+00 -1.87775e+04 -7.18852e+02 -1.94964e+04  4.96130e-01  1.00000e+00  2.30547e+01  0.00000e+00  6.31073e+00 
 5.45775e-03  2.99495e-03  1.25651e-20  3.47944e+00  8.38369e-04  3.60215e+02  3.60078e+02  6.34610e+00  6.49826e+00  4.97561e-01 -2.34324e+01  4.15121e+01  8.31943e+04 -1.01901e+05  5.46823e+02  0.00000e+00 -1.81599e+04 -7.38849e+02 -1.88987e+04  4.97569e-01  1.00000e+00  2.34647e+01  0.00000e+00  6.67074e+00 
 5.59212e-03  3.23333e-03  0.00000e+00  3.47944e+00  8.26087e-04  3.60215e+02  3.60078e+02  6.32136e+00  6.47220e+00  4.99162e-01 -2.39154e+01  4.21294e+01  8.67490e+04 -1.05072e+05  5.53127e+02  0.00000e+00 -1.77696e+04 -7.62850e+02 -1.85324e+04  4.99168e-01  1.00000e+00  2.39486e+01  0.00000e+00  7.07384e+00 
 5.73326e-03  3.47172e-03  0.00000e+00  3.47944e+00  8.12549e-04  3.60214e+02  3.60078e+02  6.29443e+00  6.44385e+00  5.00937e-01 -2.44699e+01  4.28315e+01  9.07668e+04 -1.08916e+05  5.60296e+02  0.00000e+00 -1.75887e+04 -7.90748e+02 -1.83795e+04  5.00940e-01  1.00000e+00  2.45042e+01  0.00000e+00  7.52216e+00 
 5.88069e-03  3.71014e-03 -5.35987e-21  3.47944e+00  7.97996e-04  3.60213e+02  3.60078e+02  6.26536e+00  6.41314e+00  5.02863e-01 -2.50840e+01  4.36128e+01  9.52735e+04 -1.13402e+05  5.68185e+02  0.00000e+00 -1.75602e+04 -8.22229e+02 -1.83825e+04  5.02863e-01  1.00000e+00  2.51193e+01  0.00000e+00  8.02215e+00 
 6.03395e-03  3.94857e-03  5.10973e-21  3.47944e+00  7.82648e-04  3.60212e+02  3.60079e+02  6.23398e+00  6.37979e+00  5.04954e-01 -2.57562e+01  4.44681e+01  1.00275e+05 -1.18535e+05  5.76831e+02  0.00000e+00 -1.76836e+04 -8.57267e+02 -1.85409e+04  5.04954e-01  1.00000e+00  2.57927e+01  0.00000e+00  8.57728e+00 
 6.19261e-03  4.18701e-03  0.00000e+00  3.47944e+00  7.66640e-04  3.60211e+02  3.60079e+02  6.20004e+00  6.34341e+00  5.07180e-01 -2.64882e+01  4.53969e+01  1.05816e+05 -1.24331e+05  5.86146e+02  0.00000e+00 -1.79279e+04 -8.96106e+02 -1.88240e+04  5.07180e-01  1.00000e+00  2.65261e+01  0.00000e+00  9.19488e+00 
 6.35626e-03  4.42546e-03  0.00000e+00  3.47944e+00  7.50104e-04  3.60210e+02  3.60079e+02  6.16325e+00  6.30367e+00  5.09574e-01 -2.72869e+01  4.63979e+01  1.11913e+05 -1.30846e+05  5.96072e+02  0.00000e+00 -1.83363e+04 -9.39052e+02 -1.92754e+04  5.09576e-01  1.00000e+00  2.73262e+01  0.00000e+00  9.87847e+00 
 6.52453e-03  4.66392e-03 -8.96437e-21  3.47944e+00  7.33074e-04  3.60209e+02  3.60079e+02  6.12356e+00  6.26047e+00  5.12095e-01 -2.81589e+01  4.74760e+01  1.18650e+05 -1.38147e+05  6.06537e+02  0.00000e+00 -1.88911e+04 -9.86704e+02 -1.98778e+04  5.12098e-01  1.00000e+00  2.81998e+01  0.00000e+00  1.06386e+01 
 6.69707e-03  4.90238e-03  1.72236e-20  3.47944e+00  7.15621e-04  3.60208e+02  3.60079e+02  6.08057e+00  6.21352e+00  5.14695e-01 -2.91200e+01  4.86341e+01  1.26086e+05 -1.46325e+05  6.17494e+02  0.00000e+00 -1.96213e+04 -1.04000e+03 -2.06613e+04  5.14699e-01  1.00000e+00  2.91626e+01  0.00000e+00  1.14808e+01 
 6.87356e-03  5.14086e-03  8.28595e-21  3.47944e+00  6.97741e-04  3.60207e+02  3.60080e+02  6.03439e+00  6.16295e+00  5.17318e-01 -3.01862e+01  4.98807e+01  1.34360e+05 -1.55479e+05  6.29009e+02  0.00000e+00 -2.04896e+04 -1.10011e+03 -2.15897e+04  5.17322e-01  1.00000e+00  3.02306e+01  0.00000e+00  1.24212e+01 
 7.05370e-03  5.37934e-03 -1.59677e-20  3.47944e+00  6.79494e-04  3.60207e+02  3.60080e+02  5.98440e+00  6.10823e+00  5.19991e-01 -3.13861e+01  5.12205e+01  1.43541e+05 -1.65766e+05  6.41056e+02  0.00000e+00 -2.15847e+04 -1.16853e+03 -2.27532e+04  5.19995e-01  1.00000e+00  3.14324e+01  0.00000e+00  1.34674e+01 
 7.23722e-03  5.61783e-03  0.00000e+00  3.47944e+00  6.60815e-04  3.60206e+02  3.60080e+02  5.93097e+00  6.04977e+00  5.22667e-01 -3.27503e+01  5.26687e+01  1.53848e+05 -1.77358e+05  6.53814e+02  0.00000e+00 -2.28555e+04 -1.24738e+03 -2.41029e+04  5.22670e-01  1.00000e+00  3.27988e+01  0.00000e+00  1.46463e+01 
 7.42387e-03  5.85632e-03  0.00000e+00  3.47944e+00  6.41742e-04  3.60206e+02  3.60081e+02  5.87285e+00  5.98640e+00  5.25342e-01 -3.43275e+01  5.42345e+01  1.65419e+05 -1.90498e+05  6.67190e+02  0.00000e+00 -2.44120e+04 -1.33946e+03 -2.57515e+04  5.25344e-01  1.00000e+00  3.43783e+01  0.00000e+00  1.59705e+01 
 7.61342e-03  6.09482e-03  0.00000e+00  3.47944e+00  6.22152e-04  3.60206e+02  3.60081e+02  5.81122e+00  5.91932e+00  5.27958e-01 -3.61762e+01  5.59426e+01  1.78599e+05 -2.05513e+05  6.81623e+02  0.00000e+00 -2.62327e+04 -1.44883e+03 -2.76815e+04  5.27960e-01  1.00000e+00  3.62296e+01  0.00000e+00  1.74785e+01 
 7.80566e-03  6.33332e-03  0.00000e+00  3.47944e+00  6.02074e-04  3.60206e+02  3.60082e+02  5.74302e+00  5.84549e+00  5.30608e-01 -3.83835e+01  5.78087e+01  1.93614e+05 -2.22814e+05  6.96470e+02  0.00000e+00 -2.85026e+04 -1.58055e+03 -3.00832e+04  5.30609e-01  1.00000e+00  3.84398e+01  0.00000e+00  1.91978e+01 
 8.00039e-03  6.57182e-03  0.00000e+00  3.47944e+00  5.81302e-04  3.60207e+02  3.60082e+02  5.67200e+00  5.76871e+00  5.33265e-01 -4.10723e+01  5.98749e+01  2.11098e+05 -2.42944e+05  7.12532e+02  0.00000e+00 -3.11338e+04 -1.74296e+03 -3.28768e+04  5.33265e-01  1.00000e+00  4.11317e+01  0.00000e+00  2.12089e+01 
 8.19744e-03  6.81033e-03  1.31016e-20  3.47944e+00  5.59887e-04  3.60209e+02  3.60082e+02  5.59015e+00  5.68092e+00  5.35968e-01 -4.44092e+01  6.21658e+01  2.31369e+05 -2.66776e+05  7.29440e+02  0.00000e+00 -3.46783e+04 -1.94674e+03 -3.66250e+04  5.35965e-01  1.00000e+00  4.44722e+01  0.00000e+00  2.35288e+01 
 8.39664e-03  7.04884e-03  0.00000e+00  3.47944e+00  5.37496e-04  3.60211e+02  3.60083e+02  5.50845e+00  5.59313e+00  5.38691e-01 -4.86514e+01  6.47561e+01  2.55696e+05 -2.95273e+05  7.48752e+02  0.00000e+00 -3.88278e+04 -2.21025e+03 -4.10380e+04  5.38686e-01  1.00000e+00  4.87186e+01  0.00000e+00  2.63298e+01 
 8.59784e-03  7.28736e-03  0.00000e+00  3.47944e+00  5.14225e-04  3.60215e+02  3.60084e+02  5.40602e+00  5.48449e+00  5.41437e-01 -5.41904e+01  6.76874e+01  2.84689e+05 -3.30171e+05  7.68662e+02  0.00000e+00 -4.47131e+04 -2.56015e+03 -4.72733e+04  5.41427e-01  1.00000e+00  5.42623e+01  0.00000e+00  2.96304e+01 
 8.80092e-03  7.52587e-03  0.00000e+00  3.47944e+00  4.89535e-04  3.60220e+02  3.60084e+02  5.31275e+00  5.38505e+00  5.44232e-01 -6.16470e+01  7.11021e+01  3.21005e+05 -3.73562e+05  7.93282e+02  0.00000e+00 -5.17637e+04 -3.04344e+03 -5.48071e+04  5.44216e-01  1.00000e+00  6.17246e+01  0.00000e+00  3.37994e+01 
 9.00573e-03  7.76439e-03 -1.17014e-20  3.47944e+00  4.63619e-04  3.60228e+02  3.60085e+02  5.17742e+00  5.24350e+00  5.47055e-01 -7.20313e+01  7.50777e+01  3.65978e+05 -4.29337e+05  8.17223e+02  0.00000e+00 -6.25413e+04 -3.73523e+03 -6.62765e+04  5.47031e-01  1.00000e+00  7.21155e+01  0.00000e+00  3.88663e+01 
 9.21216e-03  8.00291e-03  0.00000e+00  3.47944e+00  4.35507e-04  3.60240e+02  3.60086e+02  5.07243e+00  5.13247e+00  5.49982e-01 -8.71881e+01  7.99250e+01  4.26297e+05 -5.02710e+05  8.51068e+02  0.00000e+00 -7.55616e+04 -4.78695e+03 -8.03485e+04  5.49952e-01  1.00000e+00  8.72806e+01  0.00000e+00  4.57798e+01 
 9.42012e-03  8.24144e-03  0.00000e+00  3.47944e+00  4.05608e-04  3.60257e+02  3.60087e+02  4.87837e+00  4.93151e+00  5.52943e-01 -1.10416e+02  8.58181e+01  5.05523e+05 -6.04492e+05  8.82788e+02  0.00000e+00 -9.80861e+04 -6.47349e+03 -1.04560e+05  5.52907e-01  1.00000e+00  1.10519e+02  0.00000e+00  5.45871e+01 
 9.62949e-03  8.47996e-03  0.00000e+00  3.47944e+00  3.72146e-04  3.60284e+02  3.60087e+02  4.75131e+00  4.79841e+00  5.56124e-01 -1.49158e+02  9.35358e+01  6.23586e+05 -7.52059e+05  9.34737e+02  0.00000e+00 -1.27538e+05 -9.47513e+03 -1.37013e+05  5.56088e-01  1.00000e+00  1.49275e+02  0.00000e+00  6.80311e+01 
 9.84019e-03  8.71849e-03  0.00000e+00  3.47944e+00  3.35560e-04  3.60329e+02  3.60089e+02  4.46256e+00  4.50320e+00  5.59315e-01 -2.20058e+02  1.03736e+02  8.00867e+05 -9.81730e+05  9.75117e+02  0.00000e+00 -1.79888e+05 -1.54115e+04 -1.95299e+05  5.59281e-01  1.00000e+00  2.20193e+02  0.00000e+00  8.77739e+01 
 1.00521e-02  8.95702e-03  0.00000e+00  3.47944e+00  2.92810e-04  3.60412e+02  3.60089e+02  4.26791e+00  4.30321e+00  5.62830e-01 -3.74651e+02  1.18884e+02  1.12460e+06 -1.37715e+06  1.06113e+03  0.00000e+00 -2.51491e+05 -2.98807e+04 -2.81371e+05  5.62799e-01  1.00000e+00  3.74814e+02  0.00000e+00  1.25607e+02 
 1.02653e-02  9.19555e-03  0.00000e+00  3.47944e+00  2.44348e-04  3.60600e+02  3.60091e+02  3.76242e+00  3.79218e+00  5.66484e-01 -8.01137e+02  1.42467e+02  1.78331e+06 -2.12515e+06  1.11547e+03  0.00000e+00 -3.40718e+05 -7.60565e+04 -4.16775e+05  5.66476e-01  1.00000e+00  8.01344e+02  0.00000e+00  2.07209e+02 
 1.04795e-02  9.43408e-03  0.00000e+00  3.47944e+00  1.90362e-04  3.61219e+02  3.60093e+02  3.17909e+00  3.19867e+00  5.72546e-01 -6.58315e+03  1.82875e+02  3.66324e+06 -3.31855e+06  1.23590e+03  1.28360e+06  1.62954e+06 -1.62591e+06  3.62424e+03  5.72559e-01  1.00000e+00  6.58343e+03  3.90885e+03  5.23865e+02 
