# Code_Saturne plot output (1D profile)
#
# Iteration output: 2623
# Time output:      2.30006e+01
#
#COLUMN_TITLES: Distance | X | Y | Z | diameter_Field2 | temp_Field1 | temp_Field2 | Velocity_Field1[Z] | Velocity_Field2[Z] | vol_f_Field2 | mass_trans_Field1 | Xd_Field2 | BK | COAL | COMP | NUCL | W1 | MT | SMBR | ALPBB | CONDNUM | GAMA | GAMANUC | epsilon_Field1
 4.56474e-03  1.39645e-04  0.00000e+00  3.47944e+00  5.08893e-05  3.59626e+02  3.60051e+02  4.60043e+00  4.60752e+00  3.97199e-02  1.37616e+02  6.84818e+02  7.18497e-12 -7.49346e+05  3.98087e+03  0.00000e+00 -7.45366e+05  7.24493e+05 -2.08728e+04  3.97243e-02  1.00000e+00 -1.37605e+02  0.00000e+00  3.83690e-01 
 4.57812e-03  3.76525e-04  4.25872e-21  3.47944e+00  6.76678e-05  3.59627e+02  3.60051e+02  4.60009e+00  4.61089e+00  4.05075e-02  9.42737e+01  5.15015e+02  1.40541e-04 -4.72011e+05  2.99273e+03  0.00000e+00 -4.69019e+05  3.65996e+05 -1.03022e+05  4.05118e-02  1.00000e+00 -9.42663e+01  0.00000e+00  3.88206e-01 
 4.60371e-03  6.13858e-04  0.00000e+00  3.47944e+00  8.19166e-05  3.59629e+02  3.60051e+02  4.59888e+00  4.61287e+00  4.19577e-02  7.50598e+01  4.25431e+02  2.29853e-01 -3.55239e+05  2.47267e+03  0.00000e+00 -3.52766e+05  2.32395e+05 -1.20370e+05  4.19621e-02  1.00000e+00 -7.50538e+01  0.00000e+00  3.97075e-01 
 4.64138e-03  8.51483e-04  0.00000e+00  3.47944e+00  9.39515e-05  3.59634e+02  3.60051e+02  4.59706e+00  4.61371e+00  4.40325e-02  6.51553e+01  3.70935e+02  1.25475e+01 -2.97911e+05  2.15627e+03  0.00000e+00 -2.95742e+05  1.67602e+05 -1.28140e+05  4.40369e-02  1.00000e+00 -6.51500e+01  0.00000e+00  4.10459e-01 
 4.69084e-03  1.08931e-03  0.00000e+00  3.47944e+00  1.04645e-04  3.59641e+02  3.60051e+02  4.59456e+00  4.61354e+00  4.67494e-02  5.93779e+01  3.33029e+02  1.61892e+02 -2.66511e+05  1.93596e+03  0.00000e+00 -2.64413e+05  1.29163e+05 -1.35251e+05  4.67538e-02  1.00000e+00 -5.93730e+01  0.00000e+00  4.28631e-01 
 4.75174e-03  1.32727e-03  1.05001e-20  3.47944e+00  1.14383e-04  3.59650e+02  3.60051e+02  4.59139e+00  4.61243e+00  5.01386e-02  5.58605e+01  3.04677e+02  9.70670e+02 -2.49446e+05  1.77096e+03  0.00000e+00 -2.46704e+05  1.03653e+05 -1.43051e+05  5.01430e-02  1.00000e+00 -5.58557e+01  0.00000e+00  4.51984e-01 
 4.82366e-03  1.56534e-03  0.00000e+00  3.47944e+00  1.23293e-04  3.59662e+02  3.60051e+02  4.58751e+00  4.61039e+00  5.42403e-02  5.37799e+01  2.82660e+02  3.63361e+03 -2.41871e+05  1.64257e+03  0.00000e+00 -2.36595e+05  8.55804e+04 -1.51014e+05  5.42447e-02  1.00000e+00 -5.37752e+01  0.00000e+00  4.81047e-01 
 4.90611e-03  1.80349e-03  8.81027e-21  3.47944e+00  1.31361e-04  3.59676e+02  3.60051e+02  4.58289e+00  4.60738e+00  5.91014e-02  5.27225e+01  2.65297e+02  9.90016e+03 -2.41609e+05  1.54105e+03  0.00000e+00 -2.30168e+05  7.22679e+04 -1.57900e+05  5.91058e-02  1.00000e+00 -5.27177e+01  0.00000e+00  5.16497e-01 
 4.99859e-03  2.04170e-03  0.00000e+00  3.47944e+00  1.38515e-04  3.59692e+02  3.60051e+02  4.57749e+00  4.60333e+00  6.47752e-02  5.23046e+01  2.51596e+02  2.15239e+04 -2.47734e+05  1.46060e+03  0.00000e+00 -2.24750e+05  6.20367e+04 -1.62713e+05  6.47798e-02  1.00000e+00 -5.22996e+01  0.00000e+00  5.59174e-01 
 5.10055e-03  2.27996e-03  7.58893e-21  3.47944e+00  1.44684e-04  3.59710e+02  3.60051e+02  4.57122e+00  4.59818e+00  7.13132e-02  5.22289e+01  2.40869e+02  3.97173e+04 -2.59946e+05  1.39724e+03  0.00000e+00 -2.18832e+05  5.38687e+04 -1.64963e+05  7.13183e-02  1.00000e+00 -5.22238e+01  0.00000e+00  6.10105e-01 
 5.21143e-03  2.51826e-03  7.09702e-21  3.47944e+00  1.49841e-04  3.59729e+02  3.60051e+02  4.56403e+00  4.59184e+00  7.87604e-02  5.25664e+01  2.32579e+02  6.50110e+04 -2.78269e+05  1.34779e+03  0.00000e+00 -2.11910e+05  4.74028e+04 -1.64507e+05  7.87623e-02  1.00000e+00 -5.25609e+01  0.00000e+00  6.70522e-01 
 5.33068e-03  2.75659e-03  1.33300e-20  3.47944e+00  1.54030e-04  3.59750e+02  3.60051e+02  4.55580e+00  4.58423e+00  8.71663e-02  5.31779e+01  2.26254e+02  9.75028e+04 -3.02981e+05  1.30947e+03  0.00000e+00 -2.04168e+05  4.21512e+04 -1.62017e+05  8.71685e-02  1.00000e+00 -5.31720e+01  0.00000e+00  7.41888e-01 
 5.45775e-03  2.99495e-03  1.25651e-20  3.47944e+00  1.57349e-04  3.59771e+02  3.60051e+02  4.54642e+00  4.57522e+00  9.65579e-02  5.39026e+01  2.21481e+02  1.37176e+05 -3.34374e+05  1.27988e+03  0.00000e+00 -1.95918e+05  3.77563e+04 -1.58162e+05  9.65601e-02  1.00000e+00 -5.38963e+01  0.00000e+00  8.25924e-01 
 5.59212e-03  3.23333e-03  0.00000e+00  3.47944e+00  1.59936e-04  3.59793e+02  3.60051e+02  4.53575e+00  4.56470e+00  1.06947e-01  5.45819e+01  2.17898e+02  1.84082e+05 -3.72785e+05  1.25682e+03  0.00000e+00 -1.87446e+05  3.39596e+04 -1.53486e+05  1.06949e-01  1.00000e+00 -5.45750e+01  0.00000e+00  9.24637e-01 
 5.73326e-03  3.47172e-03  0.00000e+00  3.47944e+00  1.61944e-04  3.59816e+02  3.60051e+02  4.52362e+00  4.55258e+00  1.18326e-01  5.50610e+01  2.15197e+02  2.38358e+05 -4.18527e+05  1.23851e+03  0.00000e+00 -1.78931e+05  3.05791e+04 -1.48351e+05  1.18328e-01  1.00000e+00 -5.50535e+01  0.00000e+00  1.04035e+00 
 5.88069e-03  3.71014e-03 -5.35987e-21  3.47944e+00  1.63521e-04  3.59838e+02  3.60051e+02  4.50982e+00  4.53868e+00  1.30663e-01  5.51920e+01  2.13122e+02  3.00129e+05 -4.71818e+05  1.22339e+03  0.00000e+00 -1.70466e+05  2.74898e+04 -1.42976e+05  1.30665e-01  1.00000e+00 -5.51838e+01  0.00000e+00  1.17570e+00 
 6.03395e-03  3.94857e-03  5.10973e-21  3.47944e+00  1.64806e-04  3.59861e+02  3.60051e+02  4.49415e+00  4.52280e+00  1.43894e-01  5.48459e+01  2.11460e+02  3.69404e+05 -5.32713e+05  1.21019e+03  0.00000e+00 -1.62099e+05  2.46118e+04 -1.37487e+05  1.43897e-01  1.00000e+00 -5.48369e+01  0.00000e+00  1.33367e+00 
 6.19261e-03  4.18701e-03  0.00000e+00  3.47944e+00  1.65920e-04  3.59882e+02  3.60051e+02  4.47635e+00  4.50472e+00  1.57931e-01  5.39225e+01  2.10041e+02  4.45963e+05 -6.01056e+05  1.19785e+03  0.00000e+00 -1.53895e+05  2.18986e+04 -1.31997e+05  1.57933e-01  1.00000e+00 -5.39128e+01  0.00000e+00  1.51758e+00 
 6.35626e-03  4.42546e-03  0.00000e+00  3.47944e+00  1.66963e-04  3.59903e+02  3.60051e+02  4.45615e+00  4.48420e+00  1.72649e-01  5.23569e+01  2.08730e+02  5.29296e+05 -6.76411e+05  1.18554e+03  0.00000e+00 -1.45929e+05  1.93284e+04 -1.26601e+05  1.72651e-01  1.00000e+00 -5.23464e+01  0.00000e+00  1.73105e+00 
 6.52453e-03  4.66392e-03 -8.96437e-21  3.47944e+00  1.68015e-04  3.59923e+02  3.60051e+02  4.43327e+00  4.46094e+00  1.87903e-01  5.01278e+01  2.07423e+02  6.18571e+05 -7.58062e+05  1.17261e+03  0.00000e+00 -1.38318e+05  1.68963e+04 -1.21422e+05  1.87905e-01  1.00000e+00 -5.01164e+01  0.00000e+00  1.97801e+00 
 6.69707e-03  4.90238e-03  1.72236e-20  3.47944e+00  1.69135e-04  3.59941e+02  3.60051e+02  4.40741e+00  4.43469e+00  2.03532e-01  4.72591e+01  2.06050e+02  7.12672e+05 -8.45053e+05  1.15859e+03  0.00000e+00 -1.31222e+05  1.46084e+04 -1.16614e+05  2.03534e-01  1.00000e+00 -4.72469e+01  0.00000e+00  2.26261e+00 
 6.87356e-03  5.14086e-03  8.28595e-21  3.47944e+00  1.70356e-04  3.59958e+02  3.60051e+02  4.37831e+00  4.40516e+00  2.19350e-01  4.38151e+01  2.04573e+02  8.10329e+05 -9.36218e+05  1.14324e+03  0.00000e+00 -1.24745e+05  1.24766e+04 -1.12268e+05  2.19352e-01  1.00000e+00 -4.38022e+01  0.00000e+00  2.58930e+00 
 7.05370e-03  5.37934e-03 -1.59677e-20  3.47944e+00  1.71688e-04  3.59974e+02  3.60051e+02  4.34571e+00  4.37213e+00  2.35195e-01  3.98992e+01  2.02987e+02  9.10209e+05 -1.03046e+06  1.12646e+03  0.00000e+00 -1.19123e+05  1.05135e+04 -1.08610e+05  2.35196e-01  1.00000e+00 -3.98856e+01  0.00000e+00  2.96277e+00 
 7.23722e-03  5.61783e-03  0.00000e+00  3.47944e+00  1.73110e-04  3.59988e+02  3.60051e+02  4.30940e+00  4.33538e+00  2.50870e-01  3.56320e+01  2.01320e+02  1.01126e+06 -1.12670e+06  1.10839e+03  0.00000e+00 -1.14333e+05  8.72963e+03 -1.05604e+05  2.50871e-01  1.00000e+00 -3.56178e+01  0.00000e+00  3.38838e+00 
 7.42387e-03  5.85632e-03  0.00000e+00  3.47944e+00  1.74581e-04  3.60001e+02  3.60051e+02  4.26920e+00  4.29471e+00  2.66272e-01  3.11505e+01  1.99624e+02  1.11263e+06 -1.22452e+06  1.08934e+03  0.00000e+00 -1.10798e+05  7.12911e+03 -1.03669e+05  2.66274e-01  1.00000e+00 -3.11357e+01  0.00000e+00  3.87202e+00 
 7.61342e-03  6.09482e-03  0.00000e+00  3.47944e+00  1.76023e-04  3.60013e+02  3.60051e+02  4.22495e+00  4.24997e+00  2.81209e-01  2.65764e+01  1.97988e+02  1.21439e+06 -1.32371e+06  1.06970e+03  0.00000e+00 -1.08243e+05  5.71145e+03 -1.02532e+05  2.81211e-01  1.00000e+00 -2.65610e+01  0.00000e+00  4.42161e+00 
 7.80566e-03  6.33332e-03  0.00000e+00  3.47944e+00  1.77351e-04  3.60024e+02  3.60051e+02  4.17647e+00  4.20099e+00  2.95677e-01  2.20223e+01  1.96506e+02  1.31688e+06 -1.42530e+06  1.04997e+03  0.00000e+00 -1.07379e+05  4.46684e+03 -1.02912e+05  2.95678e-01  1.00000e+00 -2.20064e+01  0.00000e+00  5.04646e+00 
 8.00039e-03  6.57182e-03  0.00000e+00  3.47944e+00  1.78438e-04  3.60033e+02  3.60052e+02  4.12358e+00  4.14754e+00  3.09523e-01  1.75641e+01  1.95310e+02  1.42205e+06 -1.53085e+06  1.03075e+03  0.00000e+00 -1.07773e+05  3.38178e+03 -1.04391e+05  3.09524e-01  1.00000e+00 -1.75477e+01  0.00000e+00  5.76126e+00 
 8.19744e-03  6.81033e-03  1.31016e-20  3.47944e+00  1.79168e-04  3.60041e+02  3.60052e+02  4.06590e+00  4.08927e+00  3.22841e-01  1.32485e+01  1.94516e+02  1.53183e+06 -1.64343e+06  1.01256e+03  0.00000e+00 -1.10579e+05  2.43486e+03 -1.08144e+05  3.22842e-01  1.00000e+00 -1.32317e+01  0.00000e+00  6.58334e+00 
 8.39664e-03  7.04884e-03  0.00000e+00  3.47944e+00  1.79373e-04  3.60049e+02  3.60052e+02  4.00314e+00  4.02583e+00  3.35507e-01  9.08084e+00  1.94294e+02  1.65095e+06 -1.76714e+06  9.95975e+02  0.00000e+00 -1.15191e+05  1.60305e+03 -1.13588e+05  3.35508e-01  1.00000e+00 -9.06351e+00  0.00000e+00  7.54312e+00 
 8.59784e-03  7.28736e-03  0.00000e+00  3.47944e+00  1.78924e-04  3.60056e+02  3.60052e+02  3.93418e+00  3.95611e+00  3.47711e-01  5.02286e+00  1.94783e+02  1.78338e+06 -1.90795e+06  9.81476e+02  0.00000e+00 -1.23580e+05  8.56308e+02 -1.22724e+05  3.47712e-01  1.00000e+00 -5.00501e+00  0.00000e+00  8.67513e+00 
 8.80092e-03  7.52587e-03  0.00000e+00  3.47944e+00  1.77612e-04  3.60062e+02  3.60053e+02  3.85908e+00  3.88012e+00  3.59351e-01  9.88375e-01  1.96223e+02  1.93869e+06 -2.07472e+06  9.69621e+02  0.00000e+00 -1.35069e+05  1.61762e+02 -1.34907e+05  3.59352e-01  1.00000e+00 -9.69957e-01  0.00000e+00  1.00479e+01 
 9.00573e-03  7.76439e-03 -1.17014e-20  3.47944e+00  1.75306e-04  3.60067e+02  3.60053e+02  3.77415e+00  3.79417e+00  3.70677e-01 -6.98478e+00  1.98805e+02  2.12486e+06 -2.27881e+06  9.60778e+02  0.00000e+00 -1.52993e+05 -1.14913e+03 -1.54142e+05  3.70677e-01  1.00000e+00  7.01524e+00  0.00000e+00  1.17371e+01 
 9.21216e-03  8.00291e-03  0.00000e+00  3.47944e+00  1.71714e-04  3.60073e+02  3.60053e+02  3.68197e+00  3.70081e+00  3.81631e-01 -1.74397e+01  2.02965e+02  2.36354e+06 -2.54159e+06  9.55821e+02  0.00000e+00 -1.77092e+05 -2.83783e+03 -1.79930e+05  3.81630e-01  1.00000e+00  1.74709e+01  0.00000e+00  1.39206e+01 
 9.42012e-03  8.24144e-03  0.00000e+00  3.47944e+00  1.66656e-04  3.60080e+02  3.60053e+02  3.57066e+00  3.58815e+00  3.92514e-01 -3.16406e+01  2.09127e+02  2.67578e+06 -2.89132e+06  9.54931e+02  0.00000e+00 -2.14587e+05 -5.15388e+03 -2.19741e+05  3.92512e-01  1.00000e+00  3.16727e+01  0.00000e+00  1.68031e+01 
 9.62949e-03  8.47996e-03  0.00000e+00  3.47944e+00  1.59714e-04  3.60090e+02  3.60054e+02  3.45085e+00  3.46678e+00  4.03228e-01 -5.46638e+01  2.18218e+02  3.12392e+06 -3.38867e+06  9.60213e+02  0.00000e+00 -2.63788e+05 -9.04062e+03 -2.72829e+05  4.03224e-01  1.00000e+00  5.46970e+01  0.00000e+00  2.09684e+01 
 9.84019e-03  8.71849e-03  0.00000e+00  3.47944e+00  1.50718e-04  3.60106e+02  3.60054e+02  3.28809e+00  3.30230e+00  4.13984e-01 -9.96486e+01  2.31245e+02  3.78853e+06 -4.12325e+06  9.68946e+02  0.00000e+00 -3.33748e+05 -1.70063e+04 -3.50754e+05  4.13977e-01  1.00000e+00  9.96831e+01  0.00000e+00  2.72715e+01 
 1.00521e-02  8.95702e-03  0.00000e+00  3.47944e+00  1.39202e-04  3.60141e+02  3.60055e+02  3.10657e+00  3.11906e+00  4.24788e-01 -2.08009e+02  2.50378e+02  4.92856e+06 -5.32022e+06  9.84127e+02  0.00000e+00 -3.90679e+05 -3.74529e+04 -4.28132e+05  4.24778e-01  1.00000e+00  2.08046e+02  0.00000e+00  3.87389e+01 
 1.02653e-02  9.19555e-03  0.00000e+00  3.47944e+00  1.25932e-04  3.60234e+02  3.60056e+02  2.80794e+00  2.81831e+00  4.36101e-01 -5.48848e+02  2.76765e+02  7.06767e+06 -7.33713e+06  9.77186e+02  0.00000e+00 -2.68482e+05 -1.06390e+05 -3.74872e+05  4.36099e-01  1.00000e+00  5.48886e+02  0.00000e+00  6.38114e+01 
 1.04795e-02  9.43408e-03  0.00000e+00  3.47944e+00  1.15359e-04  3.60629e+02  3.60057e+02  2.35543e+00  2.36204e+00  4.49093e-01 -5.42729e+03  3.02137e+02  1.20072e+07 -1.02311e+07  9.27879e+02  7.62147e+05  2.53912e+06 -2.58431e+06 -4.51837e+04  4.49094e-01  1.00000e+00  5.42733e+03  3.27544e+03  1.59562e+02 
