# Code_Saturne plot output (1D profile)
#
# Iteration output: 3137
# Time output:      2.30035e+01
#
#COLUMN_TITLES: Distance | X | Y | Z | diameter_Field2 | temp_Field1 | temp_Field2 | Velocity_Field1[Z] | Velocity_Field2[Z] | vol_f_Field2 | mass_trans_Field1 | Xd_Field2 | BK | COAL | COMP | NUCL | W1 | MT | SMBR | ALPBB | CONDNUM | GAMA | GAMANUC | epsilon_Field1
 4.56474e-03  1.39645e-04  0.00000e+00  3.47944e+00  1.25792e-04  3.60044e+02  3.60056e+02  5.15440e+00  5.18000e+00  1.49605e-01  9.91427e+00  2.76971e+02  2.40566e+04 -1.22699e+06  2.01698e+03  0.00000e+00 -1.20091e+06  1.10392e+04 -1.18987e+06  1.49569e-01  1.00000e+00 -9.94983e+00  0.00000e+00  6.25967e-01 
 4.57812e-03  3.76525e-04  4.25872e-21  3.47944e+00  1.65751e-04  3.60044e+02  3.60056e+02  5.15332e+00  5.18922e+00  1.50734e-01  6.84139e+00  2.10198e+02  1.35470e+05 -7.71531e+05  1.53312e+03  0.00000e+00 -6.34528e+05  5.73854e+03 -6.28789e+05  1.50698e-01  1.00000e+00 -6.86701e+00  0.00000e+00  6.34995e-01 
 4.60371e-03  6.13858e-04  0.00000e+00  3.47944e+00  1.91279e-04  3.60045e+02  3.60056e+02  5.15148e+00  5.19404e+00  1.52989e-01  5.62625e+00  1.82145e+02  2.28704e+05 -6.16258e+05  1.32997e+03  0.00000e+00 -3.86225e+05  4.02967e+03 -3.82195e+05  1.52953e-01  1.00000e+00 -5.64805e+00  0.00000e+00  6.52282e-01 
 4.64138e-03  8.51483e-04  0.00000e+00  3.47944e+00  2.06125e-04  3.60046e+02  3.60056e+02  5.14900e+00  5.19537e+00  1.56163e-01  5.03249e+00  1.69027e+02  2.87347e+05 -5.59221e+05  1.23475e+03  0.00000e+00 -2.70639e+05  3.27730e+03 -2.67362e+05  1.56127e-01  1.00000e+00 -5.05281e+00  0.00000e+00  6.78201e-01 
 4.69084e-03  1.08931e-03  0.00000e+00  3.47944e+00  2.14641e-04  3.60047e+02  3.60056e+02  5.14571e+00  5.19411e+00  1.60400e-01  4.66967e+00  1.62320e+02  3.31056e+05 -5.43670e+05  1.18573e+03  0.00000e+00 -2.11428e+05  2.84383e+03 -2.08584e+05  1.60364e-01  1.00000e+00 -4.68957e+00  0.00000e+00  7.13134e-01 
 4.75174e-03  1.32727e-03  1.05001e-20  3.47944e+00  2.19382e-04  3.60049e+02  3.60056e+02  5.14152e+00  5.19084e+00  1.65641e-01  4.39009e+00  1.58812e+02  3.70601e+05 -5.50613e+05  1.15966e+03  0.00000e+00 -1.78852e+05  2.53378e+03 -1.76318e+05  1.65605e-01  1.00000e+00 -4.41015e+00  0.00000e+00  7.57912e-01 
 4.82366e-03  1.56534e-03  0.00000e+00  3.47944e+00  2.21900e-04  3.60051e+02  3.60056e+02  5.13634e+00  5.18588e+00  1.71912e-01  4.12420e+00  1.57010e+02  4.11168e+05 -5.72395e+05  1.14573e+03  0.00000e+00 -1.60081e+05  2.26840e+03 -1.57813e+05  1.71876e-01  1.00000e+00 -4.14479e+00  0.00000e+00  8.13547e-01 
 4.90611e-03  1.80349e-03  8.81027e-21  3.47944e+00  2.23132e-04  3.60053e+02  3.60056e+02  5.13005e+00  5.17940e+00  1.79175e-01  3.83127e+00  1.56143e+02  4.55444e+05 -6.05327e+05  1.13833e+03  0.00000e+00 -1.48745e+05  2.01185e+03 -1.46733e+05  1.79139e-01  1.00000e+00 -3.85266e+00  0.00000e+00  8.81333e-01 
 4.99859e-03  2.04170e-03  0.00000e+00  3.47944e+00  2.23660e-04  3.60056e+02  3.60056e+02  5.12252e+00  5.17142e+00  1.87401e-01  3.48592e+00  1.55775e+02  5.04849e+05 -6.47556e+05  1.13429e+03  0.00000e+00 -1.41573e+05  1.74745e+03 -1.39826e+05  1.87366e-01  1.00000e+00 -3.50830e+00  0.00000e+00  9.62775e-01 
 5.10055e-03  2.27996e-03  7.58893e-21  3.47944e+00  2.23841e-04  3.60058e+02  3.60056e+02  5.11361e+00  5.16189e+00  1.96531e-01  3.07150e+00  1.55649e+02  5.60104e+05 -6.97971e+05  1.13173e+03  0.00000e+00 -1.36735e+05  1.46878e+03 -1.35266e+05  1.96496e-01  1.00000e+00 -3.09502e+00  0.00000e+00  1.05962e+00 
 5.21143e-03  2.51826e-03  7.09702e-21  3.47944e+00  2.23907e-04  3.60061e+02  3.60056e+02  5.10315e+00  5.15072e+00  2.06490e-01  2.57851e+00  1.55603e+02  6.21444e+05 -7.55771e+05  1.12944e+03  0.00000e+00 -1.33198e+05  1.17547e+03 -1.32022e+05  2.06456e-01  1.00000e+00 -2.60329e+00  0.00000e+00  1.17381e+00 
 5.33068e-03  2.75659e-03  1.33300e-20  3.47944e+00  2.24010e-04  3.60064e+02  3.60056e+02  5.09093e+00  5.13776e+00  2.17178e-01  2.00407e+00  1.55532e+02  6.88717e+05 -8.20185e+05  1.12661e+03  0.00000e+00 -1.30341e+05  8.71175e+02 -1.29470e+05  2.17143e-01  1.00000e+00 -2.03018e+00  0.00000e+00  1.30749e+00 
 5.45775e-03  2.99495e-03  1.25651e-20  3.47944e+00  2.24253e-04  3.60067e+02  3.60056e+02  5.07677e+00  5.12281e+00  2.28476e-01  1.35236e+00  1.55363e+02  7.61427e+05 -8.90352e+05  1.12268e+03  0.00000e+00 -1.27802e+05  5.62216e+02 -1.27240e+05  2.28442e-01  1.00000e+00 -1.37985e+00  0.00000e+00  1.46292e+00 
 5.59212e-03  3.23333e-03  0.00000e+00  3.47944e+00  2.24702e-04  3.60069e+02  3.60056e+02  5.06044e+00  5.10571e+00  2.40247e-01  6.34947e-01  1.55053e+02  8.38796e+05 -9.65252e+05  1.11730e+03  0.00000e+00 -1.25339e+05  2.56704e+02 -1.25082e+05  2.40214e-01  1.00000e+00 -6.63827e-01  0.00000e+00  1.64248e+00 
 5.73326e-03  3.47172e-03  0.00000e+00  3.47944e+00  2.25398e-04  3.60072e+02  3.60056e+02  5.04175e+00  5.08625e+00  2.52351e-01 -3.36216e-01  1.54574e+02  9.19803e+05 -1.04374e+06  1.11024e+03  0.00000e+00 -1.22829e+05 -1.02035e+02 -1.22931e+05  2.52319e-01  1.00000e+00  2.78013e-01  0.00000e+00  1.84856e+00 
 5.88069e-03  3.71014e-03 -5.35987e-21  3.47944e+00  2.26356e-04  3.60074e+02  3.60056e+02  5.02051e+00  5.06425e+00  2.64633e-01 -2.04671e+00  1.53920e+02  1.00332e+06 -1.12455e+06  1.10143e+03  0.00000e+00 -1.20137e+05 -6.92222e+02 -1.20830e+05  2.64601e-01  1.00000e+00  1.98631e+00  0.00000e+00  2.08359e+00 
 6.03395e-03  3.94857e-03  5.10973e-21  3.47944e+00  2.27567e-04  3.60077e+02  3.60056e+02  4.99655e+00  5.03956e+00  2.76950e-01 -3.77000e+00  1.53101e+02  1.08816e+06 -1.20651e+06  1.09094e+03  0.00000e+00 -1.17256e+05 -1.22803e+03 -1.18484e+05  2.76919e-01  1.00000e+00  3.70756e+00  0.00000e+00  2.34991e+00 
 6.19261e-03  4.18701e-03  0.00000e+00  3.47944e+00  2.28995e-04  3.60079e+02  3.60056e+02  4.96976e+00  5.01207e+00  2.89166e-01 -5.46592e+00  1.52146e+02  1.17332e+06 -1.28857e+06  1.07896e+03  0.00000e+00 -1.14178e+05 -1.70285e+03 -1.15881e+05  2.89136e-01  1.00000e+00  5.40159e+00  0.00000e+00  2.64992e+00 
 6.35626e-03  4.42546e-03  0.00000e+00  3.47944e+00  2.30587e-04  3.60080e+02  3.60056e+02  4.94006e+00  4.98168e+00  3.01156e-01 -7.10009e+00  1.51097e+02  1.25800e+06 -1.36999e+06  1.06548e+03  0.00000e+00 -1.10916e+05 -2.11449e+03 -1.13031e+05  3.01127e-01  1.00000e+00  7.03406e+00  0.00000e+00  2.98605e+00 
 6.52453e-03  4.66392e-03 -8.96437e-21  3.47944e+00  2.32284e-04  3.60082e+02  3.60056e+02  4.90740e+00  4.94834e+00  3.12846e-01 -8.64621e+00  1.49993e+02  1.34173e+06 -1.45034e+06  1.05133e+03  0.00000e+00 -1.07559e+05 -2.46427e+03 -1.10023e+05  3.12819e-01  1.00000e+00  8.57864e+00  0.00000e+00  3.36108e+00 
 6.69707e-03  4.90238e-03  1.72236e-20  3.47944e+00  2.33998e-04  3.60083e+02  3.60056e+02  4.87172e+00  4.91200e+00  3.24180e-01 -1.00886e+01  1.48895e+02  1.42439e+06 -1.52981e+06  1.03670e+03  0.00000e+00 -1.04380e+05 -2.75722e+03 -1.07137e+05  3.24155e-01  1.00000e+00  1.00196e+01  0.00000e+00  3.77798e+00 
 6.87356e-03  5.14086e-03  8.28595e-21  3.47944e+00  2.35637e-04  3.60084e+02  3.60056e+02  4.83303e+00  4.87263e+00  3.35079e-01 -1.14209e+01  1.47860e+02  1.50653e+06 -1.60877e+06  1.02191e+03  0.00000e+00 -1.01223e+05 -3.00086e+03 -1.04224e+05  3.35055e-01  1.00000e+00  1.13506e+01  0.00000e+00  4.24094e+00 
 7.05370e-03  5.37934e-03 -1.59677e-20  3.47944e+00  2.37096e-04  3.60085e+02  3.60056e+02  4.79130e+00  4.83020e+00  3.45559e-01 -1.26491e+01  1.46950e+02  1.58887e+06 -1.68846e+06  1.00749e+03  0.00000e+00 -9.85881e+04 -3.20454e+03 -1.01793e+05  3.45536e-01  1.00000e+00  1.25776e+01  0.00000e+00  4.75467e+00 
 7.23722e-03  5.61783e-03  0.00000e+00  3.47944e+00  2.38275e-04  3.60086e+02  3.60056e+02  4.74644e+00  4.78462e+00  3.55536e-01 -1.37859e+01  1.46224e+02  1.67306e+06 -1.77000e+06  9.93673e+02  0.00000e+00 -9.59543e+04 -3.37902e+03 -9.93333e+04  3.55515e-01  1.00000e+00  1.37134e+01  0.00000e+00  5.32652e+00 
 7.42387e-03  5.85632e-03  0.00000e+00  3.47944e+00  2.39076e-04  3.60087e+02  3.60056e+02  4.69829e+00  4.73569e+00  3.65097e-01 -1.48568e+01  1.45734e+02  1.76044e+06 -1.85554e+06  9.80847e+02  0.00000e+00 -9.41199e+04 -3.53531e+03 -9.76552e+04  3.65076e-01  1.00000e+00  1.47830e+01  0.00000e+00  5.96425e+00 
 7.61342e-03  6.09482e-03  0.00000e+00  3.47944e+00  2.39374e-04  3.60087e+02  3.60057e+02  4.64675e+00  4.68331e+00  3.74184e-01 -1.58959e+01  1.45553e+02  1.85395e+06 -1.94756e+06  9.69364e+02  0.00000e+00 -9.26488e+04 -3.68703e+03 -9.63358e+04  3.74164e-01  1.00000e+00  1.58210e+01  0.00000e+00  6.68128e+00 
 7.80566e-03  6.33332e-03  0.00000e+00  3.47944e+00  2.39103e-04  3.60088e+02  3.60057e+02  4.59139e+00  4.62701e+00  3.82929e-01 -1.69497e+01  1.45719e+02  1.95538e+06 -2.04891e+06  9.59397e+02  0.00000e+00 -9.25713e+04 -3.84687e+03 -9.64181e+04  3.82909e-01  1.00000e+00  1.68735e+01  0.00000e+00  7.49060e+00 
 8.00039e-03  6.57182e-03  0.00000e+00  3.47944e+00  2.38124e-04  3.60088e+02  3.60057e+02  4.53209e+00  4.56667e+00  3.91247e-01 -1.80820e+01  1.46319e+02  2.06953e+06 -2.16360e+06  9.51281e+02  0.00000e+00 -9.31192e+04 -4.03394e+03 -9.71532e+04  3.91228e-01  1.00000e+00  1.80044e+01  0.00000e+00  8.41730e+00 
 8.19744e-03  6.81033e-03  1.31016e-20  3.47944e+00  2.36397e-04  3.60089e+02  3.60057e+02  4.46779e+00  4.50122e+00  3.99309e-01 -1.93807e+01  1.47389e+02  2.19887e+06 -2.29568e+06  9.45056e+02  0.00000e+00 -9.58654e+04 -4.26824e+03 -1.00134e+05  3.99290e-01  1.00000e+00  1.93016e+01  0.00000e+00  9.48316e+00 
 8.39664e-03  7.04884e-03  0.00000e+00  3.47944e+00  2.33752e-04  3.60089e+02  3.60057e+02  4.39897e+00  4.43112e+00  4.07010e-01 -2.09779e+01  1.49057e+02  2.35169e+06 -2.45232e+06  9.41166e+02  0.00000e+00 -9.96890e+04 -4.58491e+03 -1.04274e+05  4.06992e-01  1.00000e+00  2.08971e+01  0.00000e+00  1.07383e+01 
 8.59784e-03  7.28736e-03  0.00000e+00  3.47944e+00  2.30172e-04  3.60090e+02  3.60058e+02  4.32253e+00  4.35324e+00  4.14552e-01 -2.30773e+01  1.51377e+02  2.53213e+06 -2.64022e+06  9.39541e+02  0.00000e+00 -1.07153e+05 -5.03034e+03 -1.12183e+05  4.14534e-01  1.00000e+00  2.29944e+01  0.00000e+00  1.22218e+01 
 8.80092e-03  7.52587e-03  0.00000e+00  3.47944e+00  2.25421e-04  3.60092e+02  3.60058e+02  4.24137e+00  4.27049e+00  4.21837e-01 -2.60126e+01  1.54568e+02  2.75623e+06 -2.87411e+06  9.40994e+02  0.00000e+00 -1.16930e+05 -5.69149e+03 -1.22621e+05  4.21820e-01  1.00000e+00  2.59274e+01  0.00000e+00  1.40436e+01 
 9.00573e-03  7.76439e-03 -1.17014e-20  3.47944e+00  2.19482e-04  3.60094e+02  3.60059e+02  4.14655e+00  4.17388e+00  4.29067e-01 -3.03763e+01  1.58752e+02  3.03351e+06 -3.16796e+06  9.45156e+02  0.00000e+00 -1.33504e+05 -6.71370e+03 -1.40218e+05  4.29050e-01  1.00000e+00  3.02884e+01  0.00000e+00  1.62863e+01 
 9.21216e-03  8.00291e-03  0.00000e+00  3.47944e+00  2.11974e-04  3.60097e+02  3.60059e+02  4.04847e+00  4.07384e+00  4.36194e-01 -3.72586e+01  1.64376e+02  3.40097e+06 -3.55746e+06  9.54156e+02  0.00000e+00 -1.55537e+05 -8.39093e+03 -1.63928e+05  4.36178e-01  1.00000e+00  3.71674e+01  0.00000e+00  1.92297e+01 
 9.42012e-03  8.24144e-03  0.00000e+00  3.47944e+00  2.02840e-04  3.60102e+02  3.60059e+02  3.92231e+00  3.94549e+00  4.43405e-01 -4.89212e+01  1.71780e+02  3.88768e+06 -4.08138e+06  9.66376e+02  0.00000e+00 -1.92740e+05 -1.13321e+04 -2.04073e+05  4.43388e-01  1.00000e+00  4.88261e+01  0.00000e+00  2.31048e+01 
 9.62949e-03  8.47996e-03  0.00000e+00  3.47944e+00  1.91401e-04  3.60111e+02  3.60060e+02  3.79684e+00  3.81769e+00  4.50752e-01 -7.04497e+01  1.82048e+02  4.60239e+06 -4.84737e+06  9.88066e+02  0.00000e+00 -2.43992e+05 -1.70214e+04 -2.61014e+05  4.50735e-01  1.00000e+00  7.03497e+01  0.00000e+00  2.88038e+01 
 9.84019e-03  8.71849e-03  0.00000e+00  3.47944e+00  1.77458e-04  3.60128e+02  3.60061e+02  3.60991e+00  3.62816e+00  4.58265e-01 -1.15115e+02  1.96354e+02  5.67777e+06 -6.00930e+06  1.01333e+03  0.00000e+00 -3.30512e+05 -2.95216e+04 -3.60033e+05  4.58248e-01  1.00000e+00  1.15009e+02  0.00000e+00  3.73857e+01 
 1.00521e-02  8.95702e-03  0.00000e+00  3.47944e+00  1.59720e-04  3.60165e+02  3.60061e+02  3.42024e+00  3.43608e+00  4.66071e-01 -2.26145e+02  2.18163e+02  7.60417e+06 -8.03826e+06  1.05815e+03  0.00000e+00 -4.33033e+05 -6.33832e+04 -4.96416e+05  4.66057e-01  1.00000e+00  2.26031e+02  0.00000e+00  5.32827e+01 
 1.02653e-02  9.19555e-03  0.00000e+00  3.47944e+00  1.38513e-04  3.60263e+02  3.60062e+02  3.07729e+00  3.09003e+00  4.74545e-01 -5.86567e+02  2.51570e+02  1.14260e+07 -1.18571e+07  1.09157e+03  0.00000e+00 -4.30011e+05 -1.86241e+05 -6.16252e+05  4.74537e-01  1.00000e+00  5.86443e+02  0.00000e+00  8.78339e+01 
 1.04795e-02  9.43408e-03  0.00000e+00  3.47944e+00  1.16739e-04  3.60671e+02  3.60063e+02  2.58835e+00  2.59549e+00  4.85302e-01 -5.88257e+03  2.98496e+02  2.13517e+07 -1.90390e+07  1.12636e+03  1.21811e+06  3.53192e+06 -3.57805e+06 -4.61385e+04  4.85292e-01  1.00000e+00  5.88244e+03  3.43996e+03  2.20073e+02 
