# Code_Saturne plot output (1D profile)
#
# Iteration output: 2653
# Time output:      2.30012e+01
#
#COLUMN_TITLES: Distance | X | Y | Z | diameter_Field2 | temp_Field1 | temp_Field2 | Velocity_Field1[Z] | Velocity_Field2[Z] | vol_f_Field2 | mass_trans_Field1 | Xd_Field2 | BK | COAL | COMP | NUCL | W1 | MT | SMBR | ALPBB | CONDNUM | GAMA | GAMANUC | epsilon_Field1
 4.56474e-03  1.39645e-04  0.00000e+00  3.47944e+00  1.00001e-05  3.53694e+02  3.60064e+02  3.40315e+00  3.40347e+00  4.71819e-14 -6.31774e-09  3.48480e+03  0.00000e+00 -5.18110e-08  8.82894e+03  0.00000e+00  8.82894e+03 -5.78639e+00  1.87601e+07  1.46748e-16  1.46748e-10  6.31774e-09  0.00000e+00  1.91067e-01 
 4.57812e-03  3.76525e-04  4.25872e-21  3.47944e+00  1.00001e-05  3.53700e+02  3.60064e+02  3.40365e+00  3.40397e+00  5.29630e-14 -7.22867e-09  3.48480e+03  0.00000e+00 -6.94395e-08  8.88782e+03  0.00000e+00  8.88782e+03 -6.62070e+00  1.40455e+07  1.96133e-16  1.96133e-10  7.22867e-09  0.00000e+00  1.92675e-01 
 4.60371e-03  6.13858e-04  0.00000e+00  3.47944e+00  1.00001e-05  3.53711e+02  3.60064e+02  3.40234e+00  3.40267e+00  5.36811e-14 -7.37011e-09  3.48480e+03  0.00000e+00 -1.13772e-07  8.84234e+03  0.00000e+00  8.84234e+03 -6.75025e+00  8.62845e+06  3.19614e-16  3.19614e-10  7.37011e-09  0.00000e+00  1.95851e-01 
 4.64138e-03  8.51483e-04  0.00000e+00  3.47944e+00  1.00001e-05  3.53727e+02  3.60064e+02  3.40057e+00  3.40090e+00  5.27863e-14 -6.86412e-09  3.48479e+03  0.00000e+00 -6.79526e-08  8.87982e+03  0.00000e+00  8.87982e+03 -6.28682e+00  1.45540e+07  1.89377e-16  1.89377e-10  6.86412e-09  0.00000e+00  2.00631e-01 
 4.69084e-03  1.08931e-03  0.00000e+00  3.47944e+00  1.00001e-05  3.53749e+02  3.60064e+02  3.39804e+00  3.39836e+00  5.34086e-14 -7.26163e-09  3.48480e+03  0.00000e+00 -4.85005e-08  8.89990e+03  0.00000e+00  8.89990e+03 -6.65090e+00  2.05752e+07  1.33755e-16  1.33755e-10  7.26163e-09  0.00000e+00  2.07077e-01 
 4.75174e-03  1.32727e-03  1.05001e-20  3.47944e+00  1.00001e-05  3.53777e+02  3.60064e+02  3.39460e+00  3.39492e+00  4.49701e-14 -6.03608e-09  3.48480e+03  0.00000e+00 -4.22306e-08  8.81110e+03  0.00000e+00  8.81110e+03 -5.52842e+00  2.39574e+07  1.14979e-16  1.14979e-10  6.03608e-09  0.00000e+00  2.15246e-01 
 4.82366e-03  1.56534e-03  0.00000e+00  3.47944e+00  1.00001e-05  3.53811e+02  3.60064e+02  3.39065e+00  3.39098e+00  4.56508e-14 -6.61863e-09  3.48481e+03  0.00000e+00 -4.35741e-08  8.30518e+03  0.00000e+00  8.30518e+03 -6.06198e+00  2.35585e+07  1.16866e-16  1.16866e-10  6.61863e-09  0.00000e+00  2.25229e-01 
 4.90611e-03  1.80349e-03  8.81027e-21  3.47944e+00  1.00001e-05  3.53850e+02  3.60064e+02  3.38592e+00  3.38624e+00  4.51899e-14 -6.24715e-09  3.48481e+03  0.00000e+00 -9.71915e-08  8.85126e+03  0.00000e+00  8.85126e+03 -5.72173e+00  1.07470e+07  2.56248e-16  2.56248e-10  6.24715e-09  0.00000e+00  2.37149e-01 
 4.99859e-03  2.04170e-03  0.00000e+00  3.47944e+00  1.00001e-05  3.53894e+02  3.60064e+02  3.38038e+00  3.38070e+00  3.79868e-14 -5.22761e-09  3.48481e+03  0.00000e+00 -2.95742e-08  8.54157e+03  0.00000e+00  8.54157e+03 -4.78795e+00  3.59312e+07  7.65073e-17  7.65073e-11  5.22761e-09  0.00000e+00  2.51124e-01 
 5.10055e-03  2.27996e-03  7.58893e-21  3.47944e+00  1.00001e-05  3.53945e+02  3.60064e+02  3.37424e+00  3.37456e+00  3.88557e-14 -4.73495e-09  3.48481e+03  0.00000e+00 -4.02728e-08  8.79563e+03  0.00000e+00  8.79563e+03 -4.33672e+00  2.69471e+07  1.02051e-16  1.02051e-10  4.73495e-09  0.00000e+00  2.67306e-01 
 5.21143e-03  2.51826e-03  7.09702e-21  3.47944e+00  1.00001e-05  3.54001e+02  3.60064e+02  3.36734e+00  3.36766e+00  5.15074e-14 -7.66769e-09  3.48481e+03  0.00000e+00 -6.60720e-08  8.27862e+03  0.00000e+00  8.27862e+03 -7.02282e+00  1.68260e+07  1.63743e-16  1.63743e-10  7.66769e-09  0.00000e+00  2.85878e-01 
 5.33068e-03  2.75659e-03  1.33300e-20  3.47944e+00  1.00001e-05  3.54063e+02  3.60064e+02  3.35958e+00  3.35989e+00  5.25358e-14 -7.05381e-09  3.48480e+03  0.00000e+00 -5.34465e-08  8.82422e+03  0.00000e+00  8.82422e+03 -6.46057e+00  2.12786e+07  1.29363e-16  1.29363e-10  7.05381e-09  0.00000e+00  3.07025e-01 
 5.45775e-03  2.99495e-03  1.25651e-20  3.47944e+00  1.00001e-05  3.54131e+02  3.60064e+02  3.35104e+00  3.35136e+00  5.09779e-14 -7.26826e-09  3.48481e+03  0.00000e+00 -7.25472e-08  8.26907e+03  0.00000e+00  8.26907e+03 -6.65699e+00  1.60916e+07  1.71289e-16  1.71289e-10  7.26826e-09  0.00000e+00  3.30966e-01 
 5.59212e-03  3.23333e-03  0.00000e+00  3.47944e+00  1.00001e-05  3.54204e+02  3.60064e+02  3.34137e+00  3.34169e+00  5.27347e-14 -7.54181e-09  3.48481e+03  0.00000e+00 -1.44085e-07  8.30213e+03  0.00000e+00  8.30213e+03 -6.90753e+00  8.32663e+06  3.31517e-16  3.31517e-10  7.54181e-09  0.00000e+00  3.57905e-01 
 5.73326e-03  3.47172e-03  0.00000e+00  3.47944e+00  1.00001e-05  3.54284e+02  3.60064e+02  3.33119e+00  3.33150e+00  5.31050e-14 -7.40555e-09  3.48481e+03  0.00000e+00 -1.48304e-07  8.55963e+03  0.00000e+00  8.55963e+03 -6.78273e+00  8.30961e+06  3.32221e-16  3.32221e-10  7.40555e-09  0.00000e+00  3.88123e-01 
 5.88069e-03  3.71014e-03 -5.35987e-21  3.47944e+00  1.00001e-05  3.54369e+02  3.60064e+02  3.31963e+00  3.31994e+00  5.00028e-14 -7.04306e-09  3.48482e+03 2.90878e-265 -1.43888e-07  8.65887e+03  0.00000e+00  8.65887e+03 -6.45074e+00  8.78384e+06  3.13579e-16  3.13579e-10  7.04306e-09  0.00000e+00  4.21924e-01 
 6.03395e-03  3.94857e-03  5.10973e-21  3.47944e+00  1.00001e-05  3.54461e+02  3.60064e+02  3.30701e+00  3.30732e+00  3.59078e-14 -4.70802e-09  3.48483e+03 4.41642e-250 -4.91048e-08  8.36937e+03  0.00000e+00  8.36937e+03 -4.31207e+00  2.64090e+07  1.04047e-16  1.04047e-10  4.70802e-09  0.00000e+00  4.59545e-01 
 6.19261e-03  4.18701e-03  0.00000e+00  3.47944e+00  1.00001e-05  3.54558e+02  3.60064e+02  3.29345e+00  3.29376e+00  3.84979e-14 -5.12675e-09  3.48482e+03 1.85115e-235 -6.97758e-08  8.67766e+03  0.00000e+00  8.67766e+03 -4.69559e+00  1.91398e+07  1.43663e-16  1.43663e-10  5.12675e-09  0.00000e+00  5.01394e-01 
 6.35626e-03  4.42546e-03  0.00000e+00  3.47944e+00  1.00001e-05  3.54662e+02  3.60064e+02  3.27856e+00  3.27887e+00  3.96922e-14 -6.25215e-09  3.48483e+03 2.03337e-221 -2.75294e-07  8.17339e+03  0.00000e+00  8.17339e+03 -5.72635e+00  4.99284e+06  5.50494e-16  5.50494e-10  6.25215e-09  0.00000e+00  5.47928e-01 
 6.52453e-03  4.66392e-03 -8.96437e-21  3.47944e+00  1.00000e-05  3.54772e+02  3.60064e+02  3.26230e+00  3.26261e+00  1.04533e-14  3.98659e-10  3.48485e+03 5.39744e-208 -2.04440e-06  7.86152e+03  0.00000e+00  7.86152e+03  3.65131e-01  6.90629e+05  3.96873e-15  3.96873e-09 -3.98659e-10  0.00000e+00  5.99577e-01 
 6.69707e-03  4.90238e-03  1.72236e-20  3.47944e+00  1.00002e-05  3.54889e+02  3.60065e+02  3.24510e+00  3.24540e+00  4.27707e-14  4.47624e-09  3.48480e+03 3.76607e-195 -1.91953e-05  7.74350e+03  0.00000e+00  7.74350e+03  4.09980e+00  7.60699e+04  3.61579e-14  3.61579e-08 -4.47624e-09  0.00000e+00  6.57058e-01 
 6.87356e-03  5.14086e-03  8.28595e-21  3.47944e+00  1.00000e-05  3.55012e+02  3.60065e+02  3.22613e+00  3.22636e+00  3.61497e-13  4.27455e-08  3.48488e+03 6.85162e-183 -1.80851e-04  7.74390e+03  0.00000e+00  7.74390e+03  3.91508e+01  8.36257e+03  3.30413e-13  3.30413e-07 -4.27455e-08  0.00000e+00  7.21081e-01 
 7.05370e-03  5.37934e-03 -1.59677e-20  3.47944e+00  1.00000e-05  3.55143e+02  3.60065e+02  3.20604e+00  3.20619e+00  3.20211e-12  4.06363e-07  3.48488e+03 3.43950e-171 -1.74266e-03  7.31513e+03  0.00000e+00  7.31513e+03  3.72191e+02  8.71475e+02  3.08655e-12  3.08655e-06 -4.06363e-07  0.00000e+00  7.92586e-01 
 7.23722e-03  5.61783e-03  0.00000e+00  3.47944e+00  1.00000e-05  3.55282e+02  3.60065e+02  3.18417e+00  3.18428e+00  3.00008e-11  3.93395e-06  3.48489e+03 5.33549e-160 -1.72145e-02  7.26763e+03  0.00000e+00  7.26761e+03  3.60314e+03  6.62100e+01  2.95410e-11  2.95410e-05 -3.93395e-06  0.00000e+00  8.72760e-01 
 7.42387e-03  5.85632e-03  0.00000e+00  3.47944e+00  1.00000e-05  3.55429e+02  3.60065e+02  3.16085e+00  3.16094e+00  2.74922e-10  3.63398e-05  3.48489e+03 2.86018e-149 -1.64804e-01  7.40714e+03  0.00000e+00  7.40698e+03  3.32446e+04  4.06516e+04  2.73817e-10  2.73817e-04 -3.62968e-05  0.00000e+00  9.63187e-01 
 7.61342e-03  6.09482e-03  0.00000e+00  3.47944e+00  1.00000e-05  3.55586e+02  3.60065e+02  3.13564e+00  3.13573e+00  2.46799e-09  3.30761e-04  3.48489e+03 5.69832e-139 -1.55976e+00  7.99565e+03  0.00000e+00  7.99409e+03  3.02513e+05  3.10507e+05  2.50702e-09  2.50702e-03 -3.30287e-04  0.00000e+00  1.06569e+00 
 7.80566e-03  6.33332e-03  0.00000e+00  3.47944e+00  1.00000e-05  3.55752e+02  3.60064e+02  3.10854e+00  3.10862e+00  2.15600e-08  3.02010e-03  3.48485e+03 5.10551e-129 -1.44762e+01  7.07652e+03  0.00000e+00  7.06205e+03  2.76192e+06  2.76898e+06  2.24839e-08  2.24839e-02 -3.01553e-03  0.00000e+00  1.18325e+00 
 8.00039e-03  6.57182e-03  0.00000e+00  3.47944e+00  1.00000e-05  3.55930e+02  3.60064e+02  3.07923e+00  3.07930e+00  1.85765e-07  2.61218e-02  3.48483e+03 1.98837e-119 -1.30865e+02  6.72028e+03  0.00000e+00  6.58941e+03  2.38870e+07  2.38936e+07  1.96181e-07  1.96181e-01 -2.60806e-02  0.00000e+00  1.31850e+00 
 8.19744e-03  6.81033e-03  1.31016e-20  3.47944e+00  1.00000e-05  3.56120e+02  3.60064e+02  3.04739e+00  3.04744e+00  1.57004e-06  2.14441e-01  3.48484e+03 4.47043e-110 -1.12821e+03  6.60853e+03  0.00000e+00  5.48032e+03  1.20321e+08  1.20327e+08  1.62964e-06  1.00000e+00 -2.14087e-01  0.00000e+00  1.47710e+00 
 8.39664e-03  7.04884e-03  0.00000e+00  3.47944e+00  1.24089e-05  3.56325e+02  3.60064e+02  3.01264e+00  3.01272e+00  9.71411e-06  1.32671e+00  2.80835e+03  3.88094e-67 -4.95893e+03  5.30520e+03  0.00000e+00  3.46267e+02  9.79103e+07  9.79107e+07  9.95800e-06  1.00000e+00 -1.32440e+00  0.00000e+00  1.66343e+00 
 8.59784e-03  7.28736e-03  0.00000e+00  3.47944e+00  1.57896e-05  3.56547e+02  3.60064e+02  2.97475e+00  2.97490e+00  4.53940e-05  6.29948e+00  2.20705e+03  2.70212e-37 -1.60736e+04  4.09580e+03  0.00000e+00 -1.19778e+04  7.72871e+07  7.72751e+07  4.68694e-05  1.00000e+00 -6.28783e+00  0.00000e+00  1.88937e+00 
 8.80092e-03  7.52587e-03  0.00000e+00  3.47944e+00  1.98726e-05  3.56788e+02  3.60064e+02  2.93294e+00  2.93324e+00  1.68974e-04  2.19723e+01  1.75360e+03  8.95974e-20 -4.17826e+04  3.39910e+03  0.00000e+00 -3.83835e+04  5.81961e+07  5.81577e+07  1.72370e-04  1.00000e+00 -2.19287e+01  0.00000e+00  2.16456e+00 
 9.00573e-03  7.76439e-03 -1.17014e-20  3.47944e+00  2.45867e-05  3.57052e+02  3.60064e+02  2.88737e+00  2.88799e+00  5.20354e-04  5.79723e+01  1.41738e+03  3.54336e-09 -9.46344e+04  2.79921e+03  0.00000e+00 -9.18351e+04  3.93205e+07  3.92286e+07  5.40277e-04  1.00000e+00 -5.78474e+01  0.00000e+00  2.51870e+00 
 9.21216e-03  8.00291e-03  0.00000e+00  3.47944e+00  2.97456e-05  3.57341e+02  3.60064e+02  2.83387e+00  2.83510e+00  1.45137e-03  1.05499e+02  1.17156e+03  3.66638e-03 -2.00176e+05  2.31683e+03  0.00000e+00 -1.97859e+05  2.14798e+07  2.12820e+07  1.49195e-03  1.00000e+00 -1.05248e+02  0.00000e+00  2.97576e+00 
 9.42012e-03  8.24144e-03  0.00000e+00  3.47944e+00  3.48036e-05  3.57662e+02  3.60065e+02  2.77846e+00  2.78012e+00  3.72428e-03  1.83190e+02  1.00130e+03  1.44158e+01 -4.15737e+05  1.93337e+03  0.00000e+00 -4.13789e+05  1.25515e+07  1.21377e+07  3.79487e-03  1.00000e+00 -1.82699e+02  0.00000e+00  3.63005e+00 
 9.62949e-03  8.47996e-03  0.00000e+00  3.47944e+00  3.99375e-05  3.58022e+02  3.60065e+02  2.70218e+00  2.70459e+00  8.70609e-03  2.97309e+02  8.72586e+02  2.81304e+03 -8.26477e+05  1.67287e+03  0.00000e+00 -8.21991e+05  7.62155e+06  6.79956e+06  8.85230e-03  1.00000e+00 -2.96379e+02  0.00000e+00  4.57512e+00 
 9.84019e-03  8.71849e-03  0.00000e+00  3.47944e+00  4.49557e-05  3.58429e+02  3.60065e+02  2.62659e+00  2.62910e+00  1.97941e-02  4.71026e+02  7.75186e+02  1.00913e+05 -1.68894e+06  1.43001e+03  0.00000e+00 -1.58660e+06  4.72958e+06  3.14299e+06  2.00967e-02  1.00000e+00 -4.69212e+02  0.00000e+00  6.20844e+00 
 1.00521e-02  8.95702e-03  0.00000e+00  3.47944e+00  4.91533e-05  3.58893e+02  3.60065e+02  2.49218e+00  2.49606e+00  4.18087e-02  6.68482e+02  7.08990e+02  1.01795e+06 -3.44564e+06  1.26613e+03  0.00000e+00 -2.42642e+06  2.91963e+06  4.93209e+05  4.22677e-02  1.00000e+00 -6.64982e+02  0.00000e+00  9.14209e+00 
 1.02653e-02  9.19555e-03  0.00000e+00  3.47944e+00  5.10335e-05  3.59436e+02  3.60065e+02  2.34125e+00  2.34349e+00  9.16118e-02  8.15702e+02  6.82871e+02  5.46411e+06 -8.54665e+06  1.11856e+03  0.00000e+00 -3.08142e+06  1.56371e+06 -1.51771e+06  9.25700e-02  1.00000e+00 -8.08260e+02  0.00000e+00  1.66870e+01 
 1.04795e-02  9.43408e-03  0.00000e+00  3.47944e+00  4.87933e-05  3.60131e+02  3.60066e+02  1.96548e+00  1.96635e+00  1.73832e-01 -2.71826e+03  7.14230e+02  2.14606e+07 -2.35598e+07  1.08821e+03  1.08312e+07  8.73296e+06 -9.32045e+06 -5.87488e+05  1.75221e-01  1.00000e+00  2.74174e+03  2.35381e+03  4.42333e+01 
