# Code_Saturne plot output (1D profile)
#
# Iteration output: 2190
# Time output:      2.30008e+01
#
#COLUMN_TITLES: Distance | X | Y | Z | diameter_Field2 | temp_Field1 | temp_Field2 | Velocity_Field1[Z] | Velocity_Field2[Z] | vol_f_Field2 | mass_trans_Field1 | Xd_Field2 | BK | COAL | COMP | NUCL | W1 | MT | SMBR | ALPBB | CONDNUM | GAMA | GAMANUC | epsilon_Field1
 4.56474e-03  1.39645e-04  0.00000e+00  3.47944e+00  1.01346e-04  3.59028e+02  3.60050e+02  4.35729e+00  4.37384e+00  3.31342e-02  1.07839e+02  3.43892e+02  3.19338e+02 -5.24795e+05  1.86626e+03  0.00000e+00 -5.22609e+05  2.50896e+05 -2.71713e+05  3.31367e-02  1.00000e+00 -1.07836e+02  0.00000e+00  5.31741e-01 
 4.57812e-03  3.76525e-04  4.25872e-21  3.47944e+00  1.23794e-04  3.59030e+02  3.60050e+02  4.35667e+00  4.37801e+00  3.36522e-02  8.35247e+01  2.81532e+02  4.33569e+03 -3.79149e+05  1.52804e+03  0.00000e+00 -3.73285e+05  1.56644e+05 -2.16641e+05  3.36546e-02  1.00000e+00 -8.35229e+01  0.00000e+00  5.37412e-01 
 4.60371e-03  6.13858e-04  0.00000e+00  3.47944e+00  1.41936e-04  3.59035e+02  3.60050e+02  4.35492e+00  4.38007e+00  3.46117e-02  7.14898e+01  2.45548e+02  1.52171e+04 -3.10122e+05  1.33316e+03  0.00000e+00 -2.93571e+05  1.13697e+05 -1.79875e+05  3.46142e-02  1.00000e+00 -7.14882e+01  0.00000e+00  5.48578e-01 
 4.64138e-03  8.51483e-04  0.00000e+00  3.47944e+00  1.56186e-04  3.59042e+02  3.60050e+02  4.35235e+00  4.38042e+00  3.60045e-02  6.54006e+01  2.23145e+02  3.06397e+04 -2.76122e+05  1.21158e+03  0.00000e+00 -2.44271e+05  9.08665e+04 -1.53404e+05  3.60075e-02  1.00000e+00 -6.53991e+01  0.00000e+00  5.65428e-01 
 4.69084e-03  1.08931e-03  0.00000e+00  3.47944e+00  1.67929e-04  3.59053e+02  3.60050e+02  4.34889e+00  4.37929e+00  3.78436e-02  6.23108e+01  2.07541e+02  4.85607e+04 -2.59247e+05  1.12661e+03  0.00000e+00 -2.09560e+05  7.66068e+04 -1.32953e+05  3.78473e-02  1.00000e+00 -6.23094e+01  0.00000e+00  5.88261e-01 
 4.75174e-03  1.32727e-03  1.05001e-20  3.47944e+00  1.78064e-04  3.59066e+02  3.60050e+02  4.34456e+00  4.37687e+00  4.01544e-02  6.09784e+01  1.95728e+02  6.82136e+04 -2.52331e+05  1.06201e+03  0.00000e+00 -1.83056e+05  6.66324e+04 -1.16424e+05  4.01589e-02  1.00000e+00 -6.09770e+01  0.00000e+00  6.17479e-01 
 4.82366e-03  1.56534e-03  0.00000e+00  3.47944e+00  1.87223e-04  3.59082e+02  3.60050e+02  4.33933e+00  4.37330e+00  4.29680e-02  6.07718e+01  1.86153e+02  8.94555e+04 -2.51939e+05  1.00938e+03  0.00000e+00 -1.61474e+05  5.90214e+04 -1.02453e+05  4.29736e-02  1.00000e+00 -6.07704e+01  0.00000e+00  6.53605e-01 
 4.90611e-03  1.80349e-03  8.81027e-21  3.47944e+00  1.95884e-04  3.59100e+02  3.60050e+02  4.33315e+00  4.36864e+00  4.63217e-02  6.13192e+01  1.77923e+02  1.12280e+05 -2.56174e+05  9.63914e+02  0.00000e+00 -1.42930e+05  5.27981e+04 -9.01317e+04  4.63286e-02  1.00000e+00 -6.13177e+01  0.00000e+00  6.97285e-01 
 4.99859e-03  2.04170e-03  0.00000e+00  3.47944e+00  2.04431e-04  3.59121e+02  3.60050e+02  4.32600e+00  4.36294e+00  5.02569e-02  6.23665e+01  1.70484e+02  1.36578e+05 -2.63828e+05  9.22636e+02  0.00000e+00 -1.26327e+05  4.74248e+04 -7.89022e+04  5.02653e-02  1.00000e+00 -6.23650e+01  0.00000e+00  7.49295e-01 
 5.10055e-03  2.27996e-03  7.58893e-21  3.47944e+00  2.13198e-04  3.59144e+02  3.60050e+02  4.31780e+00  4.35621e+00  5.48153e-02  6.37127e+01  1.63473e+02  1.62024e+05 -2.73981e+05  8.83581e+02  0.00000e+00 -1.11073e+05  4.25921e+04 -6.84810e+04  5.48252e-02  1.00000e+00 -6.37112e+01  0.00000e+00  8.10562e-01 
 5.21143e-03  2.51826e-03  7.09702e-21  3.47944e+00  2.22491e-04  3.59170e+02  3.60050e+02  4.30849e+00  4.34844e+00  6.00413e-02  6.51852e+01  1.56645e+02  1.88039e+05 -2.85840e+05  8.45440e+02  0.00000e+00 -9.69556e+04  3.81212e+04 -5.88344e+04  6.00529e-02  1.00000e+00 -6.51835e+01  0.00000e+00  8.82156e-01 
 5.33068e-03  2.75659e-03  1.33300e-20  3.47944e+00  2.32595e-04  3.59197e+02  3.60050e+02  4.29797e+00  4.33959e+00  6.59735e-02  6.62999e+01  1.49840e+02  2.13806e+05 -2.98617e+05  8.07363e+02  0.00000e+00 -8.40031e+04  3.37534e+04 -5.02498e+04  6.59866e-02  1.00000e+00 -6.62982e+01  0.00000e+00  9.65321e-01 
 5.45775e-03  2.99495e-03  1.25651e-20  3.47944e+00  2.43775e-04  3.59226e+02  3.60050e+02  4.28612e+00  4.32962e+00  7.26486e-02  6.69193e+01  1.42969e+02  2.38332e+05 -3.11543e+05  7.68871e+02  0.00000e+00 -7.24422e+04  2.95190e+04 -4.29232e+04  7.26636e-02  1.00000e+00 -6.69175e+01  0.00000e+00  1.06146e+00 
 5.59212e-03  3.23333e-03  0.00000e+00  3.47944e+00  2.56259e-04  3.59257e+02  3.60050e+02  4.27282e+00  4.31844e+00  8.00844e-02  6.71294e+01  1.36004e+02  2.60578e+05 -3.23839e+05  7.29833e+02  0.00000e+00 -6.25309e+04  2.55532e+04 -3.69777e+04  8.01017e-02  1.00000e+00 -6.71275e+01  0.00000e+00  1.17216e+00 
 5.73326e-03  3.47172e-03  0.00000e+00  3.47944e+00  2.70233e-04  3.59288e+02  3.60050e+02  4.25793e+00  4.30594e+00  8.82962e-02  6.68361e+01  1.28971e+02  2.79589e+05 -3.34818e+05  6.90399e+02  0.00000e+00 -5.45379e+04  2.18820e+04 -3.26559e+04  8.83152e-02  1.00000e+00 -6.68341e+01  0.00000e+00  1.29917e+00 
 5.88069e-03  3.71014e-03 -5.35987e-21  3.47944e+00  2.85824e-04  3.59321e+02  3.60050e+02  4.24128e+00  4.29190e+00  9.72544e-02  6.59677e+01  1.21936e+02  2.94655e+05 -3.43816e+05  6.50931e+02  0.00000e+00 -4.85094e+04  1.85388e+04 -2.99706e+04  9.72753e-02  1.00000e+00 -6.59657e+01  0.00000e+00  1.44445e+00 
 6.03395e-03  3.94857e-03  5.10973e-21  3.47944e+00  3.03070e-04  3.59355e+02  3.60050e+02  4.22270e+00  4.27614e+00  1.06947e-01  6.45262e+01  1.14998e+02  3.05363e+05 -3.50475e+05  6.11961e+02  0.00000e+00 -4.45009e+04  1.55522e+04 -2.89486e+04  1.06969e-01  1.00000e+00 -6.45241e+01  0.00000e+00  1.61001e+00 
 6.19261e-03  4.18701e-03  0.00000e+00  3.47944e+00  3.21868e-04  3.59390e+02  3.60050e+02  4.20200e+00  4.25848e+00  1.17277e-01  6.25337e+01  1.08282e+02  3.11740e+05 -3.54514e+05  5.74150e+02  0.00000e+00 -4.21998e+04  1.29417e+04 -2.92581e+04  1.17302e-01  1.00000e+00 -6.25317e+01  0.00000e+00  1.79819e+00 
 6.35626e-03  4.42546e-03  0.00000e+00  3.47944e+00  3.41975e-04  3.59426e+02  3.60050e+02  4.17902e+00  4.23868e+00  1.28193e-01  6.00863e+01  1.01915e+02  3.14166e+05 -3.56117e+05  5.38180e+02  0.00000e+00 -4.14125e+04  1.07075e+04 -3.07050e+04  1.28219e-01  1.00000e+00 -6.00842e+01  0.00000e+00  2.01121e+00 
 6.52453e-03  4.66392e-03 -8.96437e-21  3.47944e+00  3.62958e-04  3.59462e+02  3.60050e+02  4.15362e+00  4.21642e+00  1.39508e-01  5.72675e+01  9.60236e+01  3.13479e+05 -3.55500e+05  5.04674e+02  0.00000e+00 -4.15164e+04  8.83565e+03 -3.26807e+04  1.39535e-01  1.00000e+00 -5.72654e+01  0.00000e+00  2.25184e+00 
 6.69707e-03  4.90238e-03  1.72236e-20  3.47944e+00  3.84197e-04  3.59498e+02  3.60050e+02  4.12598e+00  4.19110e+00  1.51182e-01  5.41430e+01  9.07154e+01  3.10678e+05 -3.53523e+05  4.74196e+02  0.00000e+00 -4.23707e+04  7.28234e+03 -3.50884e+04  1.51210e-01  1.00000e+00 -5.41408e+01  0.00000e+00  2.52300e+00 
 6.87356e-03  5.14086e-03  8.28595e-21  3.47944e+00  4.04957e-04  3.59536e+02  3.60051e+02  4.09617e+00  4.16110e+00  1.62919e-01  5.06242e+01  8.60651e+01  3.07100e+05 -3.50708e+05  4.47023e+02  0.00000e+00 -4.31609e+04  5.99482e+03 -3.71661e+04  1.62945e-01  1.00000e+00 -5.06221e+01  0.00000e+00  2.83004e+00 
 7.05370e-03  5.37934e-03 -1.59677e-20  3.47944e+00  4.24493e-04  3.59574e+02  3.60051e+02  4.06339e+00  4.12751e+00  1.74812e-01  4.72113e+01  8.21044e+01  3.03643e+05 -3.48319e+05  4.23309e+02  0.00000e+00 -4.42522e+04  4.97059e+03 -3.92816e+04  1.74839e-01  1.00000e+00 -4.72092e+01  0.00000e+00  3.17692e+00 
 7.23722e-03  5.61783e-03  0.00000e+00  3.47944e+00  4.42043e-04  3.59612e+02  3.60051e+02  4.02751e+00  4.09074e+00  1.86581e-01  4.39120e+01  7.88449e+01  3.01345e+05 -3.46875e+05  4.03126e+02  0.00000e+00 -4.51268e+04  4.15968e+03 -4.09671e+04  1.86609e-01  1.00000e+00 -4.39098e+01  0.00000e+00  3.57017e+00 
 7.42387e-03  5.85632e-03  0.00000e+00  3.47944e+00  4.57063e-04  3.59651e+02  3.60051e+02  3.98817e+00  4.05051e+00  1.98379e-01  4.07509e+01  7.62541e+01  3.00672e+05 -3.47423e+05  3.85989e+02  0.00000e+00 -4.63649e+04  3.51138e+03 -4.28535e+04  1.98410e-01  1.00000e+00 -4.07487e+01  0.00000e+00  4.01441e+00 
 7.61342e-03  6.09482e-03  0.00000e+00  3.47944e+00  4.69004e-04  3.59691e+02  3.60051e+02  3.94544e+00  4.00693e+00  2.09826e-01  3.76407e+01  7.43129e+01  3.02456e+05 -3.50179e+05  3.72605e+02  0.00000e+00 -4.73505e+04  2.98852e+03 -4.43620e+04  2.09849e-01  1.00000e+00 -3.76384e+01  0.00000e+00  4.52084e+00 
 7.80566e-03  6.33332e-03  0.00000e+00  3.47944e+00  4.77712e-04  3.59732e+02  3.60051e+02  3.89867e+00  3.95931e+00  2.21254e-01  3.45482e+01  7.29585e+01  3.06731e+05 -3.56164e+05  3.61705e+02  0.00000e+00 -4.90714e+04  2.55394e+03 -4.65174e+04  2.21275e-01  1.00000e+00 -3.45459e+01  0.00000e+00  5.09592e+00 
 8.00039e-03  6.57182e-03  0.00000e+00  3.47944e+00  4.82904e-04  3.59774e+02  3.60051e+02  3.84819e+00  3.90803e+00  2.32189e-01  3.13394e+01  7.21743e+01  3.14378e+05 -3.65486e+05  3.53315e+02  0.00000e+00 -5.07546e+04  2.18393e+03 -4.85707e+04  2.32207e-01  1.00000e+00 -3.13370e+01  0.00000e+00  5.76036e+00 
 8.19744e-03  6.81033e-03  1.31016e-20  3.47944e+00  4.84716e-04  3.59817e+02  3.60052e+02  3.79250e+00  3.85155e+00  2.43114e-01  2.79242e+01  7.19049e+01  3.25273e+05 -3.79268e+05  3.47134e+02  0.00000e+00 -5.36473e+04  1.85154e+03 -5.17958e+04  2.43133e-01  1.00000e+00 -2.79216e+01  0.00000e+00  6.52470e+00 
 8.39664e-03  7.04884e-03  0.00000e+00  3.47944e+00  4.82952e-04  3.59861e+02  3.60052e+02  3.73280e+00  3.79113e+00  2.53488e-01  2.41281e+01  7.21678e+01  3.40764e+05 -3.97922e+05  3.42906e+02  0.00000e+00 -5.68149e+04  1.53997e+03 -5.52749e+04  2.53507e-01  1.00000e+00 -2.41255e+01  0.00000e+00  7.42961e+00 
 8.59784e-03  7.28736e-03  0.00000e+00  3.47944e+00  4.77890e-04  3.59907e+02  3.60052e+02  3.66540e+00  3.72303e+00  2.63906e-01  1.97688e+01  7.29326e+01  3.60847e+05 -4.23083e+05  3.40473e+02  0.00000e+00 -6.18959e+04  1.22474e+03 -6.06712e+04  2.63926e-01  1.00000e+00 -1.97660e+01  0.00000e+00  8.49440e+00 
 8.80092e-03  7.52587e-03  0.00000e+00  3.47944e+00  4.69236e-04  3.59955e+02  3.60052e+02  3.59428e+00  3.65130e+00  2.73806e-01  1.45673e+01  7.42782e+01  3.88030e+05 -4.56171e+05  3.40012e+02  0.00000e+00 -6.78009e+04  8.85868e+02 -6.69151e+04  2.73821e-01  1.00000e+00 -1.45643e+01  0.00000e+00  9.80731e+00 
 9.00573e-03  7.76439e-03 -1.17014e-20  3.47944e+00  4.57295e-04  3.60007e+02  3.60052e+02  3.50950e+00  3.56599e+00  2.83853e-01  8.11407e+00  7.62181e+01  4.22906e+05 -5.00203e+05  3.40977e+02  0.00000e+00 -7.69560e+04  4.88309e+02 -7.64677e+04  2.83869e-01  1.00000e+00 -8.11082e+00  0.00000e+00  1.14114e+01 
 9.21216e-03  8.00291e-03  0.00000e+00  3.47944e+00  4.41534e-04  3.60063e+02  3.60053e+02  3.42338e+00  3.47938e+00  2.93527e-01 -5.62192e-01  7.89392e+01  4.70892e+05 -5.59217e+05  3.43953e+02  0.00000e+00 -8.79816e+04 -3.43622e+01 -8.80159e+04  2.93539e-01  1.00000e+00  5.69853e-01  0.00000e+00  1.35284e+01 
 9.42012e-03  8.24144e-03  0.00000e+00  3.47944e+00  4.22268e-04  3.60125e+02  3.60053e+02  3.30941e+00  3.36512e+00  3.03500e-01 -2.63973e+01  8.25414e+01  5.34743e+05 -6.39902e+05  3.48114e+02  0.00000e+00 -1.04811e+05 -1.61022e+03 -1.06421e+05  3.03515e-01  1.00000e+00  2.64057e+01  0.00000e+00  1.62922e+01 
 9.62949e-03  8.47996e-03  0.00000e+00  3.47944e+00  3.98337e-04  3.60199e+02  3.60053e+02  3.19931e+00  3.25419e+00  3.13374e-01 -6.42773e+01  8.75010e+01  6.29381e+05 -7.55042e+05  3.55407e+02  0.00000e+00 -1.25306e+05 -4.02486e+03 -1.29331e+05  3.13386e-01  1.00000e+00  6.42867e+01  0.00000e+00  2.03957e+01 
 9.84019e-03  8.71849e-03  0.00000e+00  3.47944e+00  3.69973e-04  3.60293e+02  3.60054e+02  3.03198e+00  3.08397e+00  3.23842e-01 -1.25091e+02  9.42102e+01  7.69837e+05 -9.24982e+05  3.62621e+02  0.00000e+00 -1.54782e+05 -8.16039e+03 -1.62942e+05  3.23855e-01  1.00000e+00  1.25102e+02  0.00000e+00  2.66117e+01 
 1.00521e-02  8.95702e-03  0.00000e+00  3.47944e+00  3.35940e-04  3.60428e+02  3.60054e+02  2.86196e+00  2.90955e+00  3.34629e-01 -2.37434e+02  1.03755e+02  1.01171e+06 -1.18562e+06  3.73523e+02  0.00000e+00 -1.73535e+05 -1.65082e+04 -1.90043e+05  3.34637e-01  1.00000e+00  2.37446e+02  0.00000e+00  3.83017e+01 
 1.02653e-02  9.19555e-03  0.00000e+00  3.47944e+00  2.99358e-04  3.60667e+02  3.60055e+02  2.55156e+00  2.59237e+00  3.47543e-01 -4.83070e+02  1.16436e+02  1.44057e+06 -1.55025e+06  3.71030e+02  0.00000e+00 -1.09311e+05 -3.62897e+04 -1.45601e+05  3.47552e-01  1.00000e+00  4.83085e+02  0.00000e+00  6.36642e+01 
 1.04795e-02  9.43408e-03  0.00000e+00  3.47944e+00  2.73277e-04  3.61269e+02  3.60056e+02  2.10757e+00  2.13712e+00  3.60647e-01 -4.36371e+03  1.27550e+02  2.16616e+06 -1.63433e+06  3.47285e+02  5.75469e+05  1.10765e+06 -1.10244e+06  5.21032e+03  3.60642e-01  1.00000e+00  4.36373e+03  3.20812e+03  1.62140e+02 
