# Code_Saturne plot output (1D profile)
#
# Iteration output: 2043
# Time output:      2.30007e+01
#
#COLUMN_TITLES: Distance | X | Y | Z | diameter_Field2 | temp_Field1 | temp_Field2 | Velocity_Field1[Z] | Velocity_Field2[Z] | vol_f_Field2 | mass_trans_Field1 | Xd_Field2 | BK | COAL | COMP | NUCL | W1 | MT | SMBR | ALPBB | CONDNUM | GAMA | GAMANUC | epsilon_Field1
 4.56474e-03  1.39645e-04  0.00000e+00  3.47944e+00  4.71572e-05  3.58733e+02  3.60048e+02  4.20240e+00  4.20757e+00  8.63994e-03  9.81669e+01  7.39128e+02  2.69773e-14 -2.89992e+05  3.62795e+03  0.00000e+00 -2.86364e+05  2.07911e+06  1.79274e+06  8.63976e-03  1.00000e+00 -9.81744e+01  0.00000e+00  3.87443e-01 
 4.57812e-03  3.76525e-04  4.25872e-21  3.47944e+00  6.04213e-05  3.58736e+02  3.60048e+02  4.20191e+00  4.20952e+00  8.98753e-03  7.24671e+01  5.76870e+02  6.54408e-07 -1.98467e+05  2.82584e+03  0.00000e+00 -1.95642e+05  1.15153e+06  9.55893e+05  8.98752e-03  1.00000e+00 -7.24727e+01  0.00000e+00  3.91365e-01 
 4.60371e-03  6.13858e-04  0.00000e+00  3.47944e+00  7.14421e-05  3.58744e+02  3.60048e+02  4.20037e+00  4.20999e+00  9.60214e-03  6.17708e+01  4.87881e+02  2.04126e-03 -1.60306e+05  2.38885e+03  0.00000e+00 -1.57917e+05  7.77007e+05  6.19091e+05  9.60228e-03  1.00000e+00 -6.17756e+01  0.00000e+00  3.99074e-01 
 4.64138e-03  8.51483e-04  0.00000e+00  3.47944e+00  8.06557e-05  3.58757e+02  3.60048e+02  4.19811e+00  4.20938e+00  1.04774e-02  5.71978e+01  4.32148e+02  2.01405e-01 -1.43455e+05  2.11530e+03  0.00000e+00 -1.41340e+05  5.84053e+05  4.42713e+05  1.04777e-02  1.00000e+00 -5.72023e+01  0.00000e+00  4.10660e-01 
 4.69084e-03  1.08931e-03  0.00000e+00  3.47944e+00  8.88626e-05  3.58774e+02  3.60048e+02  4.19506e+00  4.20780e+00  1.16267e-02  5.54782e+01  3.92237e+02  4.39628e+00 -1.36459e+05  1.91934e+03  0.00000e+00 -1.34535e+05  4.63347e+05  3.28811e+05  1.16271e-02  1.00000e+00 -5.54826e+01  0.00000e+00  4.26300e-01 
 4.75174e-03  1.32727e-03  1.05001e-20  3.47944e+00  9.64630e-05  3.58795e+02  3.60048e+02  4.19122e+00  4.20533e+00  1.30735e-02  5.54057e+01  3.61332e+02  4.23928e+01 -1.35240e+05  1.76745e+03  0.00000e+00 -1.33430e+05  3.79102e+05  2.45672e+05  1.30742e-02  1.00000e+00 -5.54102e+01  0.00000e+00  4.46237e-01 
 4.82366e-03  1.56534e-03  0.00000e+00  3.47944e+00  1.03665e-04  3.58821e+02  3.60048e+02  4.18661e+00  4.20200e+00  1.48497e-02  5.64385e+01  3.36230e+02  2.45084e+02 -1.38066e+05  1.64384e+03  0.00000e+00 -1.36177e+05  3.16356e+05  1.80179e+05  1.48507e-02  1.00000e+00 -5.64431e+01  0.00000e+00  4.70795e-01 
 4.90611e-03  1.80349e-03  8.81027e-21  3.47944e+00  1.10571e-04  3.58851e+02  3.60048e+02  4.18117e+00  4.19781e+00  1.69957e-02  5.83047e+01  3.15230e+02  9.93565e+02 -1.44177e+05  1.54018e+03  0.00000e+00 -1.41643e+05  2.67715e+05  1.26072e+05  1.69969e-02  1.00000e+00 -5.83096e+01  0.00000e+00  5.00379e-01 
 4.99859e-03  2.04170e-03  0.00000e+00  3.47944e+00  1.17216e-04  3.58884e+02  3.60048e+02  4.17491e+00  4.19272e+00  1.95562e-02  6.08566e+01  2.97358e+02  3.09269e+03 -1.53279e+05  1.45169e+03  0.00000e+00 -1.48734e+05  2.29078e+05  8.03437e+04  1.95577e-02  1.00000e+00 -6.08619e+01  0.00000e+00  5.35509e-01 
 5.10055e-03  2.27996e-03  7.58893e-21  3.47944e+00  1.23593e-04  3.58922e+02  3.60048e+02  4.16777e+00  4.18670e+00  2.25849e-02  6.40236e+01  2.82017e+02  7.83454e+03 -1.65387e+05  1.37541e+03  0.00000e+00 -1.56177e+05  1.97914e+05  4.17373e+04  2.25868e-02  1.00000e+00 -6.40294e+01  0.00000e+00  5.76805e-01 
 5.21143e-03  2.51826e-03  7.09702e-21  3.47944e+00  1.29668e-04  3.58962e+02  3.60048e+02  4.15971e+00  4.17967e+00  2.61399e-02  6.77653e+01  2.68804e+02  1.68355e+04 -1.80698e+05  1.30937e+03  0.00000e+00 -1.62553e+05  1.72513e+05  9.95947e+03  2.61422e-02  1.00000e+00 -6.77716e+01  0.00000e+00  6.25008e-01 
 5.33068e-03  2.75659e-03  1.33300e-20  3.47944e+00  1.35407e-04  3.59006e+02  3.60048e+02  4.15071e+00  4.17161e+00  3.02863e-02  7.20562e+01  2.57411e+02  3.16892e+04 -1.99552e+05  1.25204e+03  0.00000e+00 -1.66610e+05  1.51613e+05 -1.49973e+04  3.02889e-02  1.00000e+00 -7.20632e+01  0.00000e+00  6.80993e-01 
 5.45775e-03  2.99495e-03  1.25651e-20  3.47944e+00  1.40796e-04  3.59052e+02  3.60048e+02  4.14064e+00  4.16238e+00  3.50931e-02  7.68586e+01  2.47559e+02  5.36327e+04 -2.22350e+05  1.20205e+03  0.00000e+00 -1.67515e+05  1.34226e+05 -3.32894e+04  3.50961e-02  1.00000e+00 -7.68663e+01  0.00000e+00  7.45801e-01 
 5.59212e-03  3.23333e-03  0.00000e+00  3.47944e+00  1.45854e-04  3.59101e+02  3.60048e+02  4.12951e+00  4.15200e+00  4.06318e-02  8.21067e+01  2.38974e+02  8.33907e+04 -2.49503e+05  1.15803e+03  0.00000e+00 -1.64954e+05  1.19551e+05 -4.54032e+04  4.06354e-02  1.00000e+00 -8.21154e+01  0.00000e+00  8.20662e-01 
 5.73326e-03  3.47172e-03  0.00000e+00  3.47944e+00  1.50639e-04  3.59152e+02  3.60048e+02  4.11714e+00  4.14031e+00  4.69764e-02  8.76954e+01  2.31383e+02  1.21198e+05 -2.81369e+05  1.11866e+03  0.00000e+00 -1.59053e+05  1.06935e+05 -5.21174e+04  4.69805e-02  1.00000e+00 -8.77052e+01  0.00000e+00  9.07022e-01 
 5.88069e-03  3.71014e-03 -5.35987e-21  3.47944e+00  1.55246e-04  3.59203e+02  3.60048e+02  4.10351e+00  4.12731e+00  5.41964e-02  9.34696e+01  2.24517e+02  1.66889e+05 -3.18174e+05  1.08259e+03  0.00000e+00 -1.50202e+05  9.58621e+04 -5.43399e+04  5.42009e-02  1.00000e+00 -9.34806e+01  0.00000e+00  1.00659e+00 
 6.03395e-03  3.94857e-03  5.10973e-21  3.47944e+00  1.59795e-04  3.59256e+02  3.60048e+02  4.08843e+00  4.11283e+00  6.23616e-02  9.92335e+01  2.18126e+02  2.19949e+05 -3.59984e+05  1.04861e+03  0.00000e+00 -1.38987e+05  8.59317e+04 -5.30549e+04  6.23661e-02  1.00000e+00 -9.92459e+01  0.00000e+00  1.12137e+00 
 6.19261e-03  4.18701e-03  0.00000e+00  3.47944e+00  1.64425e-04  3.59309e+02  3.60048e+02  4.07179e+00  4.09679e+00  7.15141e-02  1.03451e+02  2.11984e+02  2.79504e+05 -4.06507e+05  1.01562e+03  0.00000e+00 -1.25987e+05  7.59204e+04 -5.00668e+04  7.15187e-02  1.00000e+00 -1.03465e+02  0.00000e+00  1.25375e+00 
 6.35626e-03  4.42546e-03  0.00000e+00  3.47944e+00  1.69264e-04  3.59362e+02  3.60049e+02  4.05339e+00  4.07905e+00  8.16999e-02  1.06842e+02  2.05924e+02  3.44180e+05 -4.57319e+05  9.82799e+02  0.00000e+00 -1.12156e+05  6.66730e+04 -4.54828e+04  8.17044e-02  1.00000e+00 -1.06858e+02  0.00000e+00  1.40643e+00 
 6.52453e-03  4.66392e-03 -8.96437e-21  3.47944e+00  1.74436e-04  3.59414e+02  3.60049e+02  4.03301e+00  4.05932e+00  9.29010e-02  1.09117e+02  1.99818e+02  4.12230e+05 -5.11444e+05  9.49481e+02  0.00000e+00 -9.82652e+04  5.81081e+04 -4.01571e+04  9.29052e-02  1.00000e+00 -1.09134e+02  0.00000e+00  1.58268e+00 
 6.69707e-03  4.90238e-03  1.72236e-20  3.47944e+00  1.80065e-04  3.59465e+02  3.60049e+02  4.01039e+00  4.03729e+00  1.05122e-01  1.10058e+02  1.93572e+02  4.81469e+05 -5.67803e+05  9.15238e+02  0.00000e+00 -8.54194e+04  5.01775e+04 -3.52419e+04  1.05126e-01  1.00000e+00 -1.10076e+02  0.00000e+00  1.78601e+00 
 6.87356e-03  5.14086e-03  8.28595e-21  3.47944e+00  1.86246e-04  3.59515e+02  3.60049e+02  3.98524e+00  4.01280e+00  1.18240e-01  1.09436e+02  1.87148e+02  5.49645e+05 -6.24607e+05  8.79915e+02  0.00000e+00 -7.40820e+04  4.28871e+04 -3.11949e+04  1.18244e-01  1.00000e+00 -1.09456e+02  0.00000e+00  2.02074e+00 
 7.05370e-03  5.37934e-03 -1.59677e-20  3.47944e+00  1.93042e-04  3.59563e+02  3.60049e+02  3.95720e+00  3.98548e+00  1.32206e-01  1.07215e+02  1.80560e+02  6.14340e+05 -6.80483e+05  8.43574e+02  0.00000e+00 -6.53000e+04  3.62564e+04 -2.90436e+04  1.32208e-01  1.00000e+00 -1.07236e+02  0.00000e+00  2.29117e+00 
 7.23722e-03  5.61783e-03  0.00000e+00  3.47944e+00  2.00446e-04  3.59610e+02  3.60049e+02  3.92599e+00  3.95502e+00  1.46774e-01  1.03364e+02  1.73891e+02  6.73822e+05 -7.33557e+05  8.06540e+02  0.00000e+00 -5.89289e+04  3.03226e+04 -2.86062e+04  1.46776e-01  1.00000e+00 -1.03387e+02  0.00000e+00  2.60294e+00 
 7.42387e-03  5.85632e-03  0.00000e+00  3.47944e+00  2.08390e-04  3.59655e+02  3.60049e+02  3.89120e+00  3.92101e+00  1.61848e-01  9.80848e+01  1.67262e+02  7.26603e+05 -7.83110e+05  7.69487e+02  0.00000e+00 -5.57373e+04  2.51002e+04 -3.06371e+04  1.61848e-01  1.00000e+00 -9.81086e+01  0.00000e+00  2.96108e+00 
 7.61342e-03  6.09482e-03  0.00000e+00  3.47944e+00  2.16694e-04  3.59699e+02  3.60049e+02  3.85265e+00  3.88323e+00  1.77061e-01  9.15499e+01  1.60853e+02  7.72752e+05 -8.28228e+05  7.33124e+02  0.00000e+00 -5.47432e+04  2.05950e+04 -3.41482e+04  1.77061e-01  1.00000e+00 -9.15747e+01  0.00000e+00  3.37338e+00 
 7.80566e-03  6.33332e-03  0.00000e+00  3.47944e+00  2.25121e-04  3.59740e+02  3.60049e+02  3.80990e+00  3.84123e+00  1.92372e-01  8.41168e+01  1.54832e+02  8.12510e+05 -8.69992e+05  6.98370e+02  0.00000e+00 -5.67843e+04  1.67656e+04 -4.00187e+04  1.92371e-01  1.00000e+00 -8.41425e+01  0.00000e+00  3.84636e+00 
 8.00039e-03  6.57182e-03  0.00000e+00  3.47944e+00  2.33294e-04  3.59780e+02  3.60049e+02  3.76296e+00  3.79496e+00  2.07319e-01  7.60065e+01  1.49409e+02  8.48371e+05 -9.09099e+05  6.65967e+02  0.00000e+00 -6.00621e+04  1.35651e+04 -4.64970e+04  2.07317e-01  1.00000e+00 -7.60330e+01  0.00000e+00  4.39327e+00 
 8.19744e-03  6.81033e-03  1.31016e-20  3.47944e+00  2.40857e-04  3.59819e+02  3.60049e+02  3.71123e+00  3.74379e+00  2.22063e-01  6.75302e+01  1.44718e+02  8.81975e+05 -9.48793e+05  6.36612e+02  0.00000e+00 -6.61817e+04  1.08994e+04 -5.52823e+04  2.22061e-01  1.00000e+00 -6.75575e+01  0.00000e+00  5.02509e+00 
 8.39664e-03  7.04884e-03  0.00000e+00  3.47944e+00  2.47303e-04  3.59856e+02  3.60050e+02  3.65496e+00  3.68793e+00  2.36116e-01  5.87754e+01  1.40946e+02  9.18058e+05 -9.91517e+05  6.10736e+02  0.00000e+00 -7.28485e+04  8.68990e+03 -6.41586e+04  2.36114e-01  1.00000e+00 -5.88034e+01  0.00000e+00  5.76976e+00 
 8.59784e-03  7.28736e-03  0.00000e+00  3.47944e+00  2.52290e-04  3.59893e+02  3.60050e+02  3.59249e+00  3.62563e+00  2.49892e-01  4.98062e+01  1.38161e+02  9.58773e+05 -1.04219e+06  5.88682e+02  0.00000e+00 -8.28313e+04  6.82114e+03 -7.60102e+04  2.49888e-01  1.00000e+00 -4.98352e+01  0.00000e+00  6.64976e+00 
 8.80092e-03  7.52587e-03  0.00000e+00  3.47944e+00  2.55285e-04  3.59929e+02  3.60050e+02  3.52463e+00  3.55761e+00  2.62922e-01  4.04566e+01  1.36540e+02  1.01117e+06 -1.10549e+06  5.70578e+02  0.00000e+00 -9.37505e+04  5.20515e+03 -8.85453e+04  2.62920e-01  1.00000e+00 -4.04866e+01  0.00000e+00  7.72813e+00 
 9.00573e-03  7.76439e-03 -1.17014e-20  3.47944e+00  2.56062e-04  3.59966e+02  3.60050e+02  3.44693e+00  3.47945e+00  2.75773e-01  3.03937e+01  1.36127e+02  1.07805e+06 -1.18829e+06  5.56413e+02  0.00000e+00 -1.09681e+05  3.71803e+03 -1.05963e+05  2.75769e-01  1.00000e+00 -3.04251e+01  0.00000e+00  9.05498e+00 
 9.21216e-03  8.00291e-03  0.00000e+00  3.47944e+00  2.54088e-04  3.60004e+02  3.60050e+02  3.36298e+00  3.39465e+00  2.88020e-01  1.89952e+01  1.37185e+02  1.17175e+06 -1.30067e+06  5.46270e+02  0.00000e+00 -1.28378e+05  2.24374e+03 -1.26134e+05  2.88019e-01  1.00000e+00 -1.90283e+01  0.00000e+00  1.07886e+01 
 9.42012e-03  8.24144e-03  0.00000e+00  3.47944e+00  2.49251e-04  3.60045e+02  3.60051e+02  3.26058e+00  3.29116e+00  3.00266e-01  5.09692e+00  1.39848e+02  1.29969e+06 -1.45592e+06  5.39641e+02  0.00000e+00 -1.55685e+05  5.91790e+02 -1.55094e+05  3.00264e-01  1.00000e+00 -5.13246e+00  0.00000e+00  1.30779e+01 
 9.62949e-03  8.47996e-03  0.00000e+00  3.47944e+00  2.40995e-04  3.60091e+02  3.60051e+02  3.15003e+00  3.17899e+00  3.12234e-01 -2.99084e+01  1.44640e+02  1.49128e+06 -1.68085e+06  5.37353e+02  0.00000e+00 -1.89030e+05 -3.42119e+03 -1.92451e+05  3.12233e-01  1.00000e+00  2.98314e+01  0.00000e+00  1.64221e+01 
 9.84019e-03  8.71849e-03  0.00000e+00  3.47944e+00  2.29131e-04  3.60148e+02  3.60052e+02  2.99903e+00  3.02639e+00  3.24305e-01 -9.33401e+01  1.52130e+02  1.77928e+06 -2.01543e+06  5.37560e+02  0.00000e+00 -2.35608e+05 -1.08302e+04 -2.46438e+05  3.24299e-01  1.00000e+00  9.32558e+01  0.00000e+00  2.14751e+01 
 1.00521e-02  8.95702e-03  0.00000e+00  3.47944e+00  2.12830e-04  3.60234e+02  3.60052e+02  2.82888e+00  2.85446e+00  3.36243e-01 -2.12487e+02  1.63783e+02  2.28023e+06 -2.55693e+06  5.41835e+02  0.00000e+00 -2.76152e+05 -2.56123e+04 -3.01764e+05  3.36237e-01  1.00000e+00  2.12392e+02  0.00000e+00  3.07509e+01 
 1.02653e-02  9.19555e-03  0.00000e+00  3.47944e+00  1.93050e-04  3.60400e+02  3.60053e+02  2.55259e+00  2.57581e+00  3.49498e-01 -4.99809e+02  1.80567e+02  3.21368e+06 -3.44928e+06  5.34134e+02  0.00000e+00 -2.35068e+05 -6.39147e+04 -2.98982e+05  3.49484e-01  1.00000e+00  4.99701e+02  0.00000e+00  5.11553e+01 
 1.04795e-02  9.43408e-03  0.00000e+00  3.47944e+00  1.74288e-04  3.60895e+02  3.60053e+02  2.12251e+00  2.13891e+00  3.64064e-01 -4.63038e+03  2.00008e+02  5.39961e+06 -4.54682e+06  5.11517e+02  8.93989e+05  1.74729e+06 -1.77531e+06 -2.80198e+04  3.64063e-01  1.00000e+00  4.63025e+03  3.12778e+03  1.29907e+02 
