# Code_Saturne plot output (1D profile)
#
# Iteration output: 2560
# Time output:      2.30018e+01
#
#COLUMN_TITLES: Distance | X | Y | Z | diameter_Field2 | temp_Field1 | temp_Field2 | Velocity_Field1[Z] | Velocity_Field2[Z] | vol_f_Field2 | mass_trans_Field1 | Xd_Field2 | BK | COAL | COMP | NUCL | W1 | MT | SMBR | ALPBB | CONDNUM | GAMA | GAMANUC | epsilon_Field1
 4.56474e-03  1.39645e-04  0.00000e+00  3.47944e+00  6.92017e-05  3.59694e+02  3.60052e+02  4.68309e+00  4.69431e+00  6.31329e-02  1.25433e+02  5.03571e+02  5.58690e-03 -1.66397e+06  3.04448e+03  0.00000e+00 -1.66093e+06  4.73852e+05 -1.18707e+06  6.31306e-02  1.00000e+00 -1.25441e+02  0.00000e+00  4.44680e-01 
 4.57812e-03  3.76525e-04  4.25872e-21  3.47944e+00  1.00417e-04  3.59694e+02  3.60052e+02  4.68270e+00  4.70120e+00  6.40329e-02  7.64366e+01  3.47030e+02  1.71901e+02 -8.95740e+05  2.09965e+03  0.00000e+00 -8.93469e+05  1.96199e+05 -6.97269e+05  6.40310e-02  1.00000e+00 -7.64419e+01  0.00000e+00  4.50214e-01 
 4.60371e-03  6.13858e-04  0.00000e+00  3.47944e+00  1.25889e-04  3.59696e+02  3.60052e+02  4.68136e+00  4.70583e+00  6.56912e-02  5.77135e+01  2.76814e+02  5.47888e+03 -6.27866e+05  1.67632e+03  0.00000e+00 -6.20711e+05  1.15185e+05 -5.05526e+05  6.56892e-02  1.00000e+00 -5.77176e+01  0.00000e+00  4.61026e-01 
 4.64138e-03  8.51483e-04  0.00000e+00  3.47944e+00  1.46124e-04  3.59699e+02  3.60052e+02  4.67937e+00  4.70851e+00  6.80739e-02  4.87561e+01  2.38481e+02  2.59630e+04 -5.08874e+05  1.44503e+03  0.00000e+00 -4.81466e+05  8.08988e+04 -4.00567e+05  6.80720e-02  1.00000e+00 -4.87596e+01  0.00000e+00  4.77323e-01 
 4.69084e-03  1.08931e-03  0.00000e+00  3.47944e+00  1.61990e-04  3.59704e+02  3.60052e+02  4.67665e+00  4.70935e+00  7.12105e-02  4.40696e+01  2.15123e+02  6.03254e+04 -4.51962e+05  1.30388e+03  0.00000e+00 -3.90332e+05  6.30559e+04 -3.27277e+05  7.12086e-02  1.00000e+00 -4.40728e+01  0.00000e+00  4.99434e-01 
 4.75174e-03  1.32727e-03  1.05001e-20  3.47944e+00  1.74048e-04  3.59711e+02  3.60052e+02  4.67320e+00  4.70850e+00  7.51336e-02  4.17089e+01  2.00219e+02  1.01287e+05 -4.28553e+05  1.21354e+03  0.00000e+00 -3.26053e+05  5.26438e+04 -2.73409e+05  7.51317e-02  1.00000e+00 -4.17120e+01  0.00000e+00  5.27847e-01 
 4.82366e-03  1.56534e-03  0.00000e+00  3.47944e+00  1.83027e-04  3.59720e+02  3.60052e+02  4.66898e+00  4.70610e+00  7.98819e-02  4.07350e+01  1.90397e+02  1.44750e+05 -4.26148e+05  1.15367e+03  0.00000e+00 -2.80244e+05  4.59864e+04 -2.34257e+05  7.98799e-02  1.00000e+00 -4.07381e+01  0.00000e+00  5.63212e-01 
 4.90611e-03  1.80349e-03  8.81027e-21  3.47944e+00  1.89703e-04  3.59731e+02  3.60052e+02  4.66394e+00  4.70229e+00  8.54964e-02  4.06154e+01  1.83697e+02  1.90147e+05 -4.38541e+05  1.11246e+03  0.00000e+00 -2.47281e+05  4.13327e+04 -2.05949e+05  8.54943e-02  1.00000e+00 -4.06186e+01  0.00000e+00  6.06350e-01 
 4.99859e-03  2.04170e-03  0.00000e+00  3.47944e+00  1.94759e-04  3.59743e+02  3.60052e+02  4.65802e+00  4.69718e+00  9.20147e-02  4.10151e+01  1.78928e+02  2.38423e+05 -4.62485e+05  1.08272e+03  0.00000e+00 -2.22980e+05  3.77761e+04 -1.85203e+05  9.20124e-02  1.00000e+00 -4.10185e+01  0.00000e+00  6.58270e-01 
 5.10055e-03  2.27996e-03  7.58893e-21  3.47944e+00  1.98731e-04  3.59757e+02  3.60052e+02  4.65112e+00  4.69077e+00  9.94663e-02  4.17015e+01  1.75352e+02  2.90798e+05 -4.96222e+05  1.06000e+03  0.00000e+00 -2.04364e+05  3.48209e+04 -1.69543e+05  9.94640e-02  1.00000e+00 -4.17051e+01  0.00000e+00  7.20180e-01 
 5.21143e-03  2.51826e-03  7.09702e-21  3.47944e+00  2.02025e-04  3.59772e+02  3.60052e+02  4.64314e+00  4.68308e+00  1.07872e-01  4.24990e+01  1.72493e+02  3.48272e+05 -5.38742e+05  1.04138e+03  0.00000e+00 -1.89429e+05  3.21881e+04 -1.57241e+05  1.07870e-01  1.00000e+00 -4.25028e+01  0.00000e+00  7.93506e-01 
 5.33068e-03  2.75659e-03  1.33300e-20  3.47944e+00  2.04949e-04  3.59788e+02  3.60052e+02  4.63395e+00  4.67405e+00  1.17233e-01  4.32600e+01  1.70032e+02  4.11450e+05 -5.89319e+05  1.02495e+03  0.00000e+00 -1.76844e+05  2.97182e+04 -1.47126e+05  1.17231e-01  1.00000e+00 -4.32641e+01  0.00000e+00  8.79908e-01 
 5.45775e-03  2.99495e-03  1.25651e-20  3.47944e+00  2.07739e-04  3.59805e+02  3.60052e+02  4.62339e+00  4.66358e+00  1.27537e-01  4.38558e+01  1.67749e+02  4.80463e+05 -6.47264e+05  1.00934e+03  0.00000e+00 -1.65791e+05  2.73215e+04 -1.38470e+05  1.27535e-01  1.00000e+00 -4.38602e+01  0.00000e+00  9.81280e-01 
 5.59212e-03  3.23333e-03  0.00000e+00  3.47944e+00  2.10585e-04  3.59822e+02  3.60052e+02  4.61127e+00  4.65152e+00  1.38735e-01  4.41695e+01  1.65482e+02  5.54944e+05 -7.11670e+05  9.93572e+02  0.00000e+00 -1.55732e+05  2.49542e+04 -1.30778e+05  1.38733e-01  1.00000e+00 -4.41742e+01  0.00000e+00  1.09976e+00 
 5.73326e-03  3.47172e-03  0.00000e+00  3.47944e+00  2.13639e-04  3.59840e+02  3.60052e+02  4.59738e+00  4.63769e+00  1.50764e-01  4.41049e+01  1.63116e+02  6.33987e+05 -7.81395e+05  9.76917e+02  0.00000e+00 -1.46431e+05  2.26020e+04 -1.23829e+05  1.50762e-01  1.00000e+00 -4.41100e+01  0.00000e+00  1.23771e+00 
 5.88069e-03  3.71014e-03 -5.35987e-21  3.47944e+00  2.17020e-04  3.59858e+02  3.60052e+02  4.58149e+00  4.62188e+00  1.63508e-01  4.35843e+01  1.60575e+02  7.16234e+05 -8.54889e+05  9.58891e+02  0.00000e+00 -1.37696e+05  2.02736e+04 -1.17423e+05  1.63506e-01  1.00000e+00 -4.35897e+01  0.00000e+00  1.39769e+00 
 6.03395e-03  3.94857e-03  5.10973e-21  3.47944e+00  2.20816e-04  3.59875e+02  3.60052e+02  4.56335e+00  4.60385e+00  1.76853e-01  4.25648e+01  1.57815e+02  7.99894e+05 -9.30423e+05  9.39214e+02  0.00000e+00 -1.29590e+05  1.79908e+04 -1.11599e+05  1.76852e-01  1.00000e+00 -4.25705e+01  0.00000e+00  1.58238e+00 
 6.19261e-03  4.18701e-03  0.00000e+00  3.47944e+00  2.25075e-04  3.59893e+02  3.60052e+02  4.54271e+00  4.58335e+00  1.90620e-01  4.10315e+01  1.54828e+02  8.83053e+05 -1.00596e+06  9.17828e+02  0.00000e+00 -1.21991e+05  1.57859e+04 -1.06205e+05  1.90619e-01  1.00000e+00 -4.10375e+01  0.00000e+00  1.79465e+00 
 6.35626e-03  4.42546e-03  0.00000e+00  3.47944e+00  2.29811e-04  3.59909e+02  3.60052e+02  4.51932e+00  4.56015e+00  2.04666e-01  3.90129e+01  1.51638e+02  9.63699e+05 -1.07972e+06  8.94859e+02  0.00000e+00 -1.15126e+05  1.36913e+04 -1.01435e+05  2.04665e-01  1.00000e+00 -3.90192e+01  0.00000e+00  2.03725e+00 
 6.52453e-03  4.66392e-03 -8.96437e-21  3.47944e+00  2.34980e-04  3.59926e+02  3.60052e+02  4.49299e+00  4.53403e+00  2.18765e-01  3.65607e+01  1.48303e+02  1.04031e+06 -1.14992e+06  8.70654e+02  0.00000e+00 -1.08737e+05  1.17400e+04 -9.69974e+04  2.18763e-01  1.00000e+00 -3.65672e+01  0.00000e+00  2.31322e+00 
 6.69707e-03  4.90238e-03  1.72236e-20  3.47944e+00  2.40506e-04  3.59941e+02  3.60052e+02  4.46355e+00  4.50483e+00  2.32802e-01  3.37616e+01  1.44895e+02  1.11161e+06 -1.21568e+06  8.45661e+02  0.00000e+00 -1.03228e+05  9.95364e+03 -9.32741e+04  2.32800e-01  1.00000e+00 -3.37684e+01  0.00000e+00  2.62534e+00 
 6.87356e-03  5.14086e-03  8.28595e-21  3.47944e+00  2.46244e-04  3.59956e+02  3.60052e+02  4.43090e+00  4.47242e+00  2.46541e-01  3.07038e+01  1.41520e+02  1.17745e+06 -1.27640e+06  8.20492e+02  0.00000e+00 -9.81296e+04  8.34873e+03 -8.97809e+04  2.46540e-01  1.00000e+00 -3.07107e+01  0.00000e+00  2.97714e+00 
 7.05370e-03  5.37934e-03 -1.59677e-20  3.47944e+00  2.52037e-04  3.59970e+02  3.60052e+02  4.39496e+00  4.43669e+00  2.59947e-01  2.74871e+01  1.38267e+02  1.23789e+06 -1.33274e+06  7.95707e+02  0.00000e+00 -9.40554e+04  6.92593e+03 -8.71295e+04  2.59945e-01  1.00000e+00 -2.74942e+01  0.00000e+00  3.37195e+00 
 7.23722e-03  5.61783e-03  0.00000e+00  3.47944e+00  2.57651e-04  3.59984e+02  3.60053e+02  4.35572e+00  4.39762e+00  2.72813e-01  2.41909e+01  1.35255e+02  1.29460e+06 -1.38570e+06  7.71951e+02  0.00000e+00 -9.03369e+04  5.68163e+03 -8.46553e+04  2.72811e-01  1.00000e+00 -2.41982e+01  0.00000e+00  3.81530e+00 
 7.42387e-03  5.85632e-03  0.00000e+00  3.47944e+00  2.62892e-04  3.59996e+02  3.60053e+02  4.31306e+00  4.35505e+00  2.85213e-01  2.08830e+01  1.32559e+02  1.34880e+06 -1.43744e+06  7.49681e+02  0.00000e+00 -8.78853e+04  4.59820e+03 -8.32871e+04  2.85211e-01  1.00000e+00 -2.08904e+01  0.00000e+00  4.31238e+00 
 7.61342e-03  6.09482e-03  0.00000e+00  3.47944e+00  2.67477e-04  3.60008e+02  3.60053e+02  4.26698e+00  4.30895e+00  2.96962e-01  1.76018e+01  1.30287e+02  1.40382e+06 -1.49029e+06  7.29407e+02  0.00000e+00 -8.57395e+04  3.65885e+03 -8.20806e+04  2.96960e-01  1.00000e+00 -1.76093e+01  0.00000e+00  4.87360e+00 
 7.80566e-03  6.33332e-03  0.00000e+00  3.47944e+00  2.71240e-04  3.60020e+02  3.60053e+02  4.21711e+00  4.25890e+00  3.08259e-01  1.43629e+01  1.28480e+02  1.46134e+06 -1.54736e+06  7.11332e+02  0.00000e+00 -8.53087e+04  2.83660e+03 -8.24721e+04  3.08256e-01  1.00000e+00 -1.43706e+01  0.00000e+00  5.50805e+00 
 8.00039e-03  6.57182e-03  0.00000e+00  3.47944e+00  2.73887e-04  3.60031e+02  3.60053e+02  4.16344e+00  4.20487e+00  3.18897e-01  1.11562e+01  1.27239e+02  1.52621e+06 -1.61210e+06  6.95806e+02  0.00000e+00 -8.51921e+04  2.10957e+03 -8.30826e+04  3.18894e-01  1.00000e+00 -1.11640e+01  0.00000e+00  6.23594e+00 
 8.19744e-03  6.81033e-03  1.31016e-20  3.47944e+00  2.75333e-04  3.60041e+02  3.60053e+02  4.10499e+00  4.14583e+00  3.29189e-01  7.94368e+00  1.26571e+02  1.60004e+06 -1.68827e+06  6.82786e+02  0.00000e+00 -8.75492e+04  1.44795e+03 -8.61013e+04  3.29185e-01  1.00000e+00 -7.95168e+00  0.00000e+00  7.07301e+00 
 8.39664e-03  7.04884e-03  0.00000e+00  3.47944e+00  2.75277e-04  3.60052e+02  3.60054e+02  4.04215e+00  4.08215e+00  3.38877e-01  4.66609e+00  1.26597e+02  1.69010e+06 -1.78117e+06  6.72561e+02  0.00000e+00 -9.04015e+04  8.26999e+02 -8.95745e+04  3.38873e-01  1.00000e+00 -4.67432e+00  0.00000e+00  8.06010e+00 
 8.59784e-03  7.28736e-03  0.00000e+00  3.47944e+00  2.73733e-04  3.60062e+02  3.60054e+02  3.97227e+00  4.01116e+00  3.48370e-01  1.22307e+00  1.27312e+02  1.79818e+06 -1.89589e+06  6.64903e+02  0.00000e+00 -9.70431e+04  2.13157e+02 -9.68300e+04  3.48365e-01  1.00000e+00 -1.23158e+00  0.00000e+00  9.22560e+00 
 8.80092e-03  7.52587e-03  0.00000e+00  3.47944e+00  2.70358e-04  3.60072e+02  3.60054e+02  3.89758e+00  3.93508e+00  3.57367e-01 -5.66925e+00  1.28902e+02  1.93684e+06 -2.04230e+06  6.60236e+02  0.00000e+00 -1.04798e+05 -9.65628e+02 -1.05764e+05  3.57361e-01  1.00000e+00  5.65270e+00  0.00000e+00  1.06591e+01 
 9.00573e-03  7.76439e-03 -1.17014e-20  3.47944e+00  2.65203e-04  3.60082e+02  3.60054e+02  3.81060e+00  3.84640e+00  3.66315e-01 -1.53562e+01  1.31408e+02  2.11053e+06 -2.23005e+06  6.58218e+02  0.00000e+00 -1.18860e+05 -2.60601e+03 -1.21466e+05  3.66307e-01  1.00000e+00  1.53390e+01  0.00000e+00  1.24206e+01 
 9.21216e-03  8.00291e-03  0.00000e+00  3.47944e+00  2.57692e-04  3.60094e+02  3.60055e+02  3.71960e+00  3.75335e+00  3.74927e-01 -2.76788e+01  1.35240e+02  2.34709e+06 -2.48439e+06  6.60140e+02  0.00000e+00 -1.36635e+05 -4.72534e+03 -1.41360e+05  3.74919e-01  1.00000e+00  2.76609e+01  0.00000e+00  1.47370e+01 
 9.42012e-03  8.24144e-03  0.00000e+00  3.47944e+00  2.47850e-04  3.60108e+02  3.60055e+02  3.60388e+00  3.63526e+00  3.83651e-01 -4.50654e+01  1.40611e+02  2.66345e+06 -2.83199e+06  6.65139e+02  0.00000e+00 -1.67872e+05 -7.81910e+03 -1.75691e+05  3.83642e-01  1.00000e+00  4.50465e+01  0.00000e+00  1.77818e+01 
 9.62949e-03  8.47996e-03  0.00000e+00  3.47944e+00  2.34781e-04  3.60127e+02  3.60056e+02  3.48642e+00  3.51510e+00  3.92344e-01 -7.27751e+01  1.48439e+02  3.13614e+06 -3.34724e+06  6.76738e+02  0.00000e+00 -2.10425e+05 -1.30363e+04 -2.23461e+05  3.92337e-01  1.00000e+00  7.27549e+01  0.00000e+00  2.22728e+01 
 9.84019e-03  8.71849e-03  0.00000e+00  3.47944e+00  2.18329e-04  3.60157e+02  3.60056e+02  3.31509e+00  3.34081e+00  4.01251e-01 -1.23333e+02  1.59626e+02  3.85139e+06 -4.13616e+06  6.91945e+02  0.00000e+00 -2.84072e+05 -2.32328e+04 -3.07305e+05  4.01242e-01  1.00000e+00  1.23312e+02  0.00000e+00  2.90310e+01 
 1.00521e-02  8.95702e-03  0.00000e+00  3.47944e+00  1.96824e-04  3.60211e+02  3.60057e+02  3.13620e+00  3.15896e+00  4.10264e-01 -2.35492e+02  1.77069e+02  5.14604e+06 -5.52275e+06  7.20031e+02  0.00000e+00 -3.75994e+05 -4.81300e+04 -4.24124e+05  4.10257e-01  1.00000e+00  2.35468e+02  0.00000e+00  4.15924e+01 
 1.02653e-02  9.19555e-03  0.00000e+00  3.47944e+00  1.70566e-04  3.60337e+02  3.60057e+02  2.82141e+00  2.84001e+00  4.20214e-01 -5.57652e+02  2.04331e+02  7.72975e+06 -8.15829e+06  7.42774e+02  0.00000e+00 -4.27797e+05 -1.28410e+05 -5.56207e+05  4.20210e-01  1.00000e+00  5.57625e+02  0.00000e+00  6.89507e+01 
 1.04795e-02  9.43408e-03  0.00000e+00  3.47944e+00  1.41766e-04  3.60783e+02  3.60059e+02  2.36005e+00  2.37124e+00  4.31948e-01 -5.32151e+03  2.45846e+02  1.46724e+07 -1.32974e+07  7.74495e+02  1.27697e+06  2.65268e+06 -2.69087e+06 -3.81815e+04  4.31951e-01  1.00000e+00  5.32148e+03  3.31162e+03  1.74181e+02 
