# Code_Saturne plot output (1D profile)
#
# Iteration output: 3084
# Time output:      2.30007e+01
#
#COLUMN_TITLES: Distance | X | Y | Z | diameter_Field2 | temp_Field1 | temp_Field2 | Velocity_Field1[Z] | Velocity_Field2[Z] | vol_f_Field2 | mass_trans_Field1 | Xd_Field2 | BK | COAL | COMP | NUCL | W1 | MT | SMBR | ALPBB | CONDNUM | GAMA | GAMANUC | epsilon_Field1
 4.56474e-03  1.39645e-04  0.00000e+00  3.47944e+00  2.56315e-04  3.59863e+02  3.60056e+02  5.03992e+00  5.09710e+00  1.53179e-01  3.03202e+01  1.35933e+02  4.81543e+05 -7.44352e+05  9.57708e+02  0.00000e+00 -2.61851e+05  6.13394e+03 -2.55717e+05  1.53179e-01  1.00000e+00 -3.02957e+01  0.00000e+00  7.48516e-01 
 4.57812e-03  3.76525e-04  4.25872e-21  3.47944e+00  2.64010e-04  3.59864e+02  3.60056e+02  5.03914e+00  5.09840e+00  1.54283e-01  2.92570e+01  1.31971e+02  4.92964e+05 -7.14475e+05  9.29777e+02  0.00000e+00 -2.20582e+05  5.70522e+03 -2.14877e+05  1.54281e-01  1.00000e+00 -2.92332e+01  0.00000e+00  7.57742e-01 
 4.60371e-03  6.13858e-04  0.00000e+00  3.47944e+00  2.68639e-04  3.59866e+02  3.60056e+02  5.03731e+00  5.09766e+00  1.56321e-01  2.87480e+01  1.29697e+02  5.06956e+05 -7.07138e+05  9.13654e+02  0.00000e+00 -1.99269e+05  5.43750e+03 -1.93831e+05  1.56318e-01  1.00000e+00 -2.87243e+01  0.00000e+00  7.75842e-01 
 4.64138e-03  8.51483e-04  0.00000e+00  3.47944e+00  2.71768e-04  3.59869e+02  3.60056e+02  5.03459e+00  5.09549e+00  1.59298e-01  2.85126e+01  1.28203e+02  5.25209e+05 -7.13422e+05  9.02835e+02  0.00000e+00 -1.87310e+05  5.23120e+03 -1.82079e+05  1.59294e-01  1.00000e+00 -2.84888e+01  0.00000e+00  8.03213e-01 
 4.69084e-03  1.08931e-03  0.00000e+00  3.47944e+00  2.74403e-04  3.59873e+02  3.60056e+02  5.03089e+00  5.09210e+00  1.63225e-01  2.83860e+01  1.26972e+02  5.48248e+05 -7.28427e+05  8.93703e+02  0.00000e+00 -1.79285e+05  5.03380e+03 -1.74251e+05  1.63221e-01  1.00000e+00 -2.83618e+01  0.00000e+00  8.40424e-01 
 4.75174e-03  1.32727e-03  1.05001e-20  3.47944e+00  2.77029e-04  3.59878e+02  3.60055e+02  5.02615e+00  5.08756e+00  1.68092e-01  2.82811e+01  1.25769e+02  5.76029e+05 -7.49827e+05  8.84629e+02  0.00000e+00 -1.72914e+05  4.82373e+03 -1.68090e+05  1.68088e-01  1.00000e+00 -2.82564e+01  0.00000e+00  8.88241e-01 
 4.82366e-03  1.56534e-03  0.00000e+00  3.47944e+00  2.79918e-04  3.59884e+02  3.60055e+02  5.02029e+00  5.08188e+00  1.73883e-01  2.81399e+01  1.24470e+02  6.08187e+05 -7.76210e+05  8.74752e+02  0.00000e+00 -1.67148e+05  4.59179e+03 -1.62556e+05  1.73879e-01  1.00000e+00 -2.81146e+01  0.00000e+00  9.47615e-01 
 4.90611e-03  1.80349e-03  8.81027e-21  3.47944e+00  2.83244e-04  3.59890e+02  3.60055e+02  5.01320e+00  5.07500e+00  1.80561e-01  2.79162e+01  1.23009e+02  6.44120e+05 -8.06430e+05  8.63583e+02  0.00000e+00 -1.61446e+05  4.33517e+03 -1.57111e+05  1.80557e-01  1.00000e+00 -2.78903e+01  0.00000e+00  1.01969e+00 
 4.99859e-03  2.04170e-03  0.00000e+00  3.47944e+00  2.87130e-04  3.59898e+02  3.60055e+02  5.00475e+00  5.06681e+00  1.88077e-01  2.75716e+01  1.21344e+02  6.82986e+05 -8.39393e+05  8.50829e+02  0.00000e+00 -1.55556e+05  4.05478e+03 -1.51501e+05  1.88073e-01  1.00000e+00 -2.75450e+01  0.00000e+00  1.10575e+00 
 5.10055e-03  2.27996e-03  7.58893e-21  3.47944e+00  2.91665e-04  3.59906e+02  3.60055e+02  4.99480e+00  5.05718e+00  1.96357e-01  2.70745e+01  1.19458e+02  7.23757e+05 -8.73943e+05  8.36352e+02  0.00000e+00 -1.49349e+05  3.75434e+03 -1.45595e+05  1.96352e-01  1.00000e+00 -2.70471e+01  0.00000e+00  1.20727e+00 
 5.21143e-03  2.51826e-03  7.09702e-21  3.47944e+00  2.96903e-04  3.59914e+02  3.60055e+02  4.98317e+00  5.04597e+00  2.05312e-01  2.64026e+01  1.17350e+02  7.65253e+05 -9.08901e+05  8.20142e+02  0.00000e+00 -1.42828e+05  3.43953e+03 -1.39389e+05  2.05307e-01  1.00000e+00 -2.63745e+01  0.00000e+00  1.32578e+00 
 5.33068e-03  2.75659e-03  1.33300e-20  3.47944e+00  3.02865e-04  3.59923e+02  3.60055e+02  4.96969e+00  5.03301e+00  2.14830e-01  2.55438e+01  1.15040e+02  8.06271e+05 -9.43087e+05  8.02322e+02  0.00000e+00 -1.36014e+05  3.11744e+03 -1.32896e+05  2.14825e-01  1.00000e+00 -2.55150e+01  0.00000e+00  1.46295e+00 
 5.45775e-03  2.99495e-03  1.25651e-20  3.47944e+00  3.09529e-04  3.59932e+02  3.60055e+02  4.95420e+00  5.01810e+00  2.24794e-01  2.44988e+01  1.12563e+02  8.45657e+05 -9.75458e+05  7.83129e+02  0.00000e+00 -1.29018e+05  2.79567e+03 -1.26223e+05  2.24789e-01  1.00000e+00 -2.44694e+01  0.00000e+00  1.62041e+00 
 5.59212e-03  3.23333e-03  0.00000e+00  3.47944e+00  3.16826e-04  3.59942e+02  3.60055e+02  4.93654e+00  5.00110e+00  2.35064e-01  2.32798e+01  1.09971e+02  8.82498e+05 -1.00517e+06  7.62914e+02  0.00000e+00 -1.21907e+05  2.48177e+03 -1.19425e+05  2.35059e-01  1.00000e+00 -2.32499e+01  0.00000e+00  1.79984e+00 
 5.73326e-03  3.47172e-03  0.00000e+00  3.47944e+00  3.24642e-04  3.59951e+02  3.60055e+02  4.91659e+00  4.98185e+00  2.45519e-01  2.19100e+01  1.07324e+02  9.16161e+05 -1.03174e+06  7.42099e+02  0.00000e+00 -1.14840e+05  2.18223e+03 -1.12658e+05  2.45515e-01  1.00000e+00 -2.18797e+01  0.00000e+00  2.00287e+00 
 5.88069e-03  3.71014e-03 -5.35987e-21  3.47944e+00  3.32800e-04  3.59961e+02  3.60055e+02  4.89424e+00  4.96023e+00  2.56020e-01  2.04197e+01  1.04693e+02  9.46496e+05 -1.05508e+06  7.21179e+02  0.00000e+00 -1.07859e+05  1.90233e+03 -1.05956e+05  2.56017e-01  1.00000e+00 -2.03890e+01  0.00000e+00  2.23116e+00 
 6.03395e-03  3.94857e-03  5.10973e-21  3.47944e+00  3.41089e-04  3.59971e+02  3.60055e+02  4.86946e+00  4.93614e+00  2.66471e-01  1.88431e+01  1.02149e+02  9.73716e+05 -1.07556e+06  7.00668e+02  0.00000e+00 -1.01140e+05  1.64539e+03 -9.94949e+04  2.66468e-01  1.00000e+00 -1.88121e+01  0.00000e+00  2.48635e+00 
 6.19261e-03  4.18701e-03  0.00000e+00  3.47944e+00  3.49244e-04  3.59981e+02  3.60056e+02  4.84221e+00  4.90953e+00  2.76765e-01  1.72134e+01  9.97637e+01  9.98569e+05 -1.09398e+06  6.81066e+02  0.00000e+00 -9.47330e+04  1.41314e+03 -9.33199e+04  2.76763e-01  1.00000e+00 -1.71820e+01  0.00000e+00  2.77041e+00 
 6.35626e-03  4.42546e-03  0.00000e+00  3.47944e+00  3.56994e-04  3.59990e+02  3.60056e+02  4.81247e+00  4.88032e+00  2.86840e-01  1.55592e+01  9.75982e+01  1.02203e+06 -1.11148e+06  6.62647e+02  0.00000e+00 -8.87867e+04  1.20546e+03 -8.75812e+04  2.86838e-01  1.00000e+00 -1.55275e+01  0.00000e+00  3.08538e+00 
 6.52453e-03  4.66392e-03 -8.96437e-21  3.47944e+00  3.64070e-04  3.60000e+02  3.60056e+02  4.78024e+00  4.84847e+00  2.96624e-01  1.39009e+01  9.57015e+01  1.04539e+06 -1.12926e+06  6.45947e+02  0.00000e+00 -8.32277e+04  1.02095e+03 -8.22068e+04  2.96621e-01  1.00000e+00 -1.38689e+01  0.00000e+00  3.43420e+00 
 6.69707e-03  4.90238e-03  1.72236e-20  3.47944e+00  3.70232e-04  3.60009e+02  3.60056e+02  4.74549e+00  4.81388e+00  3.06126e-01  1.22517e+01  9.41088e+01  1.06986e+06 -1.14887e+06  6.31083e+02  0.00000e+00 -7.83857e+04  8.57089e+02 -7.75286e+04  3.06124e-01  1.00000e+00 -1.22193e+01  0.00000e+00  3.81997e+00 
 6.87356e-03  5.14086e-03  8.28595e-21  3.47944e+00  3.75246e-04  3.60018e+02  3.60056e+02  4.70816e+00  4.77648e+00  3.15278e-01  1.06160e+01  9.28516e+01  1.09703e+06 -1.17171e+06  6.18213e+02  0.00000e+00 -7.40608e+04  7.11148e+02 -7.33496e+04  3.15276e-01  1.00000e+00 -1.05832e+01  0.00000e+00  4.24764e+00 
 7.05370e-03  5.37934e-03 -1.59677e-20  3.47944e+00  3.78992e-04  3.60027e+02  3.60056e+02  4.66810e+00  4.73607e+00  3.24147e-01  8.99023e+00  9.19343e+01  1.12789e+06 -1.19915e+06  6.07331e+02  0.00000e+00 -7.06543e+04  5.79612e+02 -7.00747e+04  3.24146e-01  1.00000e+00 -8.95685e+00  0.00000e+00  4.72197e+00 
 7.23722e-03  5.61783e-03  0.00000e+00  3.47944e+00  3.81316e-04  3.60036e+02  3.60056e+02  4.62522e+00  4.69257e+00  3.32649e-01  7.36535e+00  9.13744e+01  1.16419e+06 -1.23255e+06  5.98472e+02  0.00000e+00 -6.77595e+04  4.59479e+02 -6.73001e+04  3.32648e-01  1.00000e+00 -7.33129e+00  0.00000e+00  5.25153e+00 
 7.42387e-03  5.85632e-03  0.00000e+00  3.47944e+00  3.82221e-04  3.60044e+02  3.60056e+02  4.57920e+00  4.64563e+00  3.40911e-01  5.72592e+00  9.11583e+01  1.20659e+06 -1.27318e+06  5.91488e+02  0.00000e+00 -6.60052e+04  3.47210e+02 -6.56580e+04  3.40911e-01  1.00000e+00 -5.69104e+00  0.00000e+00  5.84355e+00 
 7.61342e-03  6.09482e-03  0.00000e+00  3.47944e+00  3.81599e-04  3.60053e+02  3.60056e+02  4.52995e+00  4.59516e+00  3.48817e-01  4.05382e+00  9.13073e+01  1.25736e+06 -1.32268e+06  5.86377e+02  0.00000e+00 -6.47296e+04  2.39972e+02 -6.44896e+04  3.48817e-01  1.00000e+00 -4.01798e+00  0.00000e+00  6.51300e+00 
 7.80566e-03  6.33332e-03  0.00000e+00  3.47944e+00  3.79547e-04  3.60061e+02  3.60057e+02  4.47681e+00  4.54050e+00  3.56551e-01  2.32366e+00  9.18014e+01  1.31696e+06 -1.38247e+06  5.82935e+02  0.00000e+00 -6.49219e+04  1.34331e+02 -6.47875e+04  3.56552e-01  1.00000e+00 -2.28667e+00  0.00000e+00  7.27071e+00 
 8.00039e-03  6.57182e-03  0.00000e+00  3.47944e+00  3.75931e-04  3.60069e+02  3.60057e+02  4.41993e+00  4.48184e+00  3.63948e-01  5.06997e-01  9.26849e+01  1.38904e+06 -1.45518e+06  5.81239e+02  0.00000e+00 -6.55562e+04  2.72321e+01 -6.55290e+04  3.63948e-01  1.00000e+00 -4.68668e-01  0.00000e+00  8.14438e+00 
 8.19744e-03  6.81033e-03  1.31016e-20  3.47944e+00  3.70917e-04  3.60077e+02  3.60057e+02  4.35772e+00  4.41756e+00  3.71254e-01 -3.32474e+00  9.39382e+01  1.47405e+06 -1.54285e+06  5.81045e+02  0.00000e+00 -6.82182e+04 -1.96664e+02 -6.84148e+04  3.71256e-01  1.00000e+00  3.40653e+00  0.00000e+00  9.15080e+00 
 8.39664e-03  7.04884e-03  0.00000e+00  3.47944e+00  3.64270e-04  3.60085e+02  3.60057e+02  4.29143e+00  4.34894e+00  3.78255e-01 -8.16035e+00  9.56529e+01  1.57859e+06 -1.65058e+06  5.82620e+02  0.00000e+00 -7.14000e+04 -4.75742e+02 -7.18758e+04  3.78255e-01  1.00000e+00  8.24543e+00  0.00000e+00  1.03451e+01 
 8.59784e-03  7.28736e-03  0.00000e+00  3.47944e+00  3.56177e-04  3.60093e+02  3.60058e+02  4.21676e+00  4.27165e+00  3.85249e-01 -1.37290e+01  9.78271e+01  1.70400e+06 -1.78240e+06  5.85679e+02  0.00000e+00 -7.78173e+04 -8.00572e+02 -7.86179e+04  3.85252e-01  1.00000e+00  1.38179e+01  0.00000e+00  1.17562e+01 
 8.80092e-03  7.52587e-03  0.00000e+00  3.47944e+00  3.46211e-04  3.60102e+02  3.60058e+02  4.13847e+00  4.19051e+00  3.91997e-01 -2.04679e+01  1.00644e+02  1.86350e+06 -1.94948e+06  5.90947e+02  0.00000e+00 -8.53949e+04 -1.20447e+03 -8.65994e+04  3.91997e-01  1.00000e+00  2.05612e+01  0.00000e+00  1.35054e+01 
 9.00573e-03  7.76439e-03 -1.17014e-20  3.47944e+00  3.34591e-04  3.60112e+02  3.60058e+02  4.04475e+00  4.09363e+00  3.98828e-01 -2.90847e+01  1.04140e+02  2.06140e+06 -2.16100e+06  5.97816e+02  0.00000e+00 -9.90108e+04 -1.73863e+03 -1.00749e+05  3.98831e-01  1.00000e+00  2.91834e+01  0.00000e+00  1.56525e+01 
 9.21216e-03  8.00291e-03  0.00000e+00  3.47944e+00  3.20567e-04  3.60124e+02  3.60059e+02  3.95027e+00  3.99574e+00  4.05527e-01 -4.08862e+01  1.08697e+02  2.32818e+06 -2.44461e+06  6.08240e+02  0.00000e+00 -1.15823e+05 -2.50687e+03 -1.18330e+05  4.05527e-01  1.00000e+00  4.09914e+01  0.00000e+00  1.85038e+01 
 9.42012e-03  8.24144e-03  0.00000e+00  3.47944e+00  3.04349e-04  3.60139e+02  3.60059e+02  3.82412e+00  3.86589e+00  4.12410e-01 -5.82432e+01  1.14490e+02  2.68112e+06 -2.82788e+06  6.20460e+02  0.00000e+00 -1.46130e+05 -3.69628e+03 -1.49827e+05  4.12414e-01  1.00000e+00  5.83562e+01  0.00000e+00  2.22391e+01 
 9.62949e-03  8.47996e-03  0.00000e+00  3.47944e+00  2.84539e-04  3.60161e+02  3.60060e+02  3.70345e+00  3.74128e+00  4.19362e-01 -8.65313e+01  1.22462e+02  3.20908e+06 -3.39689e+06  6.40137e+02  0.00000e+00 -1.87168e+05 -5.77362e+03 -1.92941e+05  4.19363e-01  1.00000e+00  8.66545e+01  0.00000e+00  2.78116e+01 
 9.84019e-03  8.71849e-03  0.00000e+00  3.47944e+00  2.61119e-04  3.60195e+02  3.60060e+02  3.51515e+00  3.54892e+00  4.26559e-01 -1.38035e+02  1.33447e+02  4.00805e+06 -4.27475e+06  6.62295e+02  0.00000e+00 -2.66034e+05 -9.86256e+03 -2.75897e+05  4.26564e-01  1.00000e+00  1.38171e+02  0.00000e+00  3.61624e+01 
 1.00521e-02  8.95702e-03  0.00000e+00  3.47944e+00  2.31206e-04  3.60255e+02  3.60061e+02  3.33128e+00  3.36094e+00  4.33989e-01 -2.51973e+02  1.50714e+02  5.49012e+06 -5.87891e+06  7.02611e+02  0.00000e+00 -3.88088e+05 -1.99779e+04 -4.08066e+05  4.33991e-01  1.00000e+00  2.52129e+02  0.00000e+00  5.18625e+01 
 1.02653e-02  9.19555e-03  0.00000e+00  3.47944e+00  1.94532e-04  3.60392e+02  3.60062e+02  2.98580e+00  3.00995e+00  4.42377e-01 -5.79006e+02  1.79130e+02  8.58477e+06 -9.18729e+06  7.43878e+02  0.00000e+00 -6.01777e+05 -5.35114e+04 -6.55288e+05  4.42382e-01  1.00000e+00  5.79191e+02  0.00000e+00  8.59340e+01 
 1.04795e-02  9.43408e-03  0.00000e+00  3.47944e+00  1.50409e-04  3.60856e+02  3.60063e+02  2.50031e+00  2.51442e+00  4.52695e-01 -5.55354e+03  2.31684e+02  1.79903e+07 -1.73517e+07  8.32564e+02  1.13844e+06  1.77791e+06 -1.81330e+06 -3.53976e+04  4.52687e-01  1.00000e+00  5.55377e+03  3.41359e+03  2.17390e+02 
