# Code_Saturne plot output (1D profile)
#
# Iteration output: 12236
# Time output:      2.30002e+01
#
#COLUMN_TITLES: Distance | X | Y | Z | diameter_Field2 | temp_Field1 | temp_Field2 | Velocity_Field1[Z] | Velocity_Field2[Z] | vol_f_Field2 | mass_trans_Field1 | Xd_Field2 | BK | COAL | COMP | NUCL | W1 | MT | SMBR | ALPBB | CONDNUM | GAMA | GAMANUC | epsilon_Field1
 4.56474e-03  1.39645e-04  0.00000e+00  3.47944e+00  9.91745e-04  3.60346e+02  3.60132e+02  8.59858e+00  8.78872e+00  6.78413e-01 -3.46838e+01  3.49994e+01  1.04656e+05 -9.87140e+04  1.05347e+03  0.00000e+00  6.99528e+03 -4.72326e+02  6.52295e+03  6.78418e-01  1.00000e+00  3.46850e+01  0.00000e+00  1.18112e+01 
 4.57812e-03  3.76525e-04  4.25872e-21  3.47944e+00  9.89874e-04  3.60346e+02  3.60132e+02  8.59779e+00  8.78762e+00  6.78437e-01 -3.47304e+01  3.50655e+01  1.05117e+05 -9.92481e+04  1.05448e+03  0.00000e+00  6.92326e+03 -4.73837e+02  6.44942e+03  6.78443e-01  1.00000e+00  3.47316e+01  0.00000e+00  1.18588e+01 
 4.60371e-03  6.13858e-04  0.00000e+00  3.47944e+00  9.86234e-04  3.60346e+02  3.60132e+02  8.59365e+00  8.78277e+00  6.78454e-01 -3.48187e+01  3.51950e+01  1.06034e+05 -1.00289e+05  1.05797e+03  0.00000e+00  6.80312e+03 -4.76784e+02  6.32633e+03  6.78460e-01  1.00000e+00  3.48199e+01  0.00000e+00  1.19528e+01 
 4.64138e-03  8.51483e-04  0.00000e+00  3.47944e+00  9.80884e-04  3.60345e+02  3.60132e+02  8.58784e+00  8.77596e+00  6.78485e-01 -3.49503e+01  3.53870e+01  1.07405e+05 -1.01839e+05  1.06316e+03  0.00000e+00  6.62966e+03 -4.81174e+02  6.14849e+03  6.78492e-01  1.00000e+00  3.49515e+01  0.00000e+00  1.20940e+01 
 4.69084e-03  1.08931e-03  0.00000e+00  3.47944e+00  9.73870e-04  3.60344e+02  3.60132e+02  8.57980e+00  8.76664e+00  6.78533e-01 -3.51265e+01  3.56418e+01  1.09242e+05 -1.03910e+05  1.06999e+03  0.00000e+00  6.40243e+03 -4.87049e+02  5.91538e+03  6.78540e-01  1.00000e+00  3.51278e+01  0.00000e+00  1.22842e+01 
 4.75174e-03  1.32727e-03  1.05001e-20  3.47944e+00  9.65285e-04  3.60343e+02  3.60132e+02  8.56981e+00  8.75501e+00  6.78614e-01 -3.53408e+01  3.59589e+01  1.11553e+05 -1.06508e+05  1.07848e+03  0.00000e+00  6.12358e+03 -4.94320e+02  5.62926e+03  6.78621e-01  1.00000e+00  3.53421e+01  0.00000e+00  1.25254e+01 
 4.82366e-03  1.56534e-03  0.00000e+00  3.47944e+00  9.55232e-04  3.60342e+02  3.60132e+02  8.55763e+00  8.74076e+00  6.78728e-01 -3.55874e+01  3.63374e+01  1.14352e+05 -1.09641e+05  1.08853e+03  0.00000e+00  5.79975e+03 -5.02925e+02  5.29683e+03  6.78735e-01  1.00000e+00  3.55887e+01  0.00000e+00  1.28201e+01 
 4.90611e-03  1.80349e-03  8.81027e-21  3.47944e+00  9.43823e-04  3.60341e+02  3.60132e+02  8.54333e+00  8.72398e+00  6.78908e-01 -3.58643e+01  3.67767e+01  1.17649e+05 -1.13318e+05  1.10010e+03  0.00000e+00  5.43029e+03 -5.12830e+02  4.91746e+03  6.78915e-01  1.00000e+00  3.58656e+01  0.00000e+00  1.31717e+01 
 4.99859e-03  2.04170e-03  0.00000e+00  3.47944e+00  9.31158e-04  3.60340e+02  3.60132e+02  8.52680e+00  8.70461e+00  6.79129e-01 -3.61729e+01  3.72770e+01  1.21477e+05 -1.17566e+05  1.11319e+03  0.00000e+00  5.02375e+03 -5.24108e+02  4.49964e+03  6.79136e-01  1.00000e+00  3.61742e+01  0.00000e+00  1.35834e+01 
 5.10055e-03  2.27996e-03  7.58893e-21  3.47944e+00  9.17348e-04  3.60338e+02  3.60132e+02  8.50796e+00  8.68264e+00  6.79458e-01 -3.65132e+01  3.78383e+01  1.25852e+05 -1.22394e+05  1.12755e+03  0.00000e+00  4.58611e+03 -5.36747e+02  4.04936e+03  6.79465e-01  1.00000e+00  3.65146e+01  0.00000e+00  1.40628e+01 
 5.21143e-03  2.51826e-03  7.09702e-21  3.47944e+00  9.02481e-04  3.60336e+02  3.60132e+02  8.48675e+00  8.65804e+00  6.79802e-01 -3.68866e+01  3.84617e+01  1.30842e+05 -1.27847e+05  1.14342e+03  0.00000e+00  4.13871e+03 -5.50890e+02  3.58782e+03  6.79809e-01  1.00000e+00  3.68880e+01  0.00000e+00  1.46125e+01 
 5.33068e-03  2.75659e-03  1.33300e-20  3.47944e+00  8.86678e-04  3.60334e+02  3.60133e+02  8.46308e+00  8.63075e+00  6.80297e-01 -3.72925e+01  3.91474e+01  1.36438e+05 -1.33966e+05  1.16075e+03  0.00000e+00  3.63339e+03 -5.66469e+02  3.06692e+03  6.80303e-01  1.00000e+00  3.72939e+01  0.00000e+00  1.52404e+01 
 5.45775e-03  2.99495e-03  1.25651e-20  3.47944e+00  8.70010e-04  3.60332e+02  3.60133e+02  8.43673e+00  8.60058e+00  6.80816e-01 -3.77324e+01  3.98976e+01  1.42747e+05 -1.40800e+05  1.17955e+03  0.00000e+00  3.12699e+03 -5.83692e+02  2.54330e+03  6.80821e-01  1.00000e+00  3.77338e+01  0.00000e+00  1.59528e+01 
 5.59212e-03  3.23333e-03  0.00000e+00  3.47944e+00  8.52600e-04  3.60330e+02  3.60133e+02  8.40774e+00  8.56758e+00  6.81538e-01 -3.82052e+01  4.07125e+01  1.49752e+05 -1.48389e+05  1.19971e+03  0.00000e+00  2.56296e+03 -6.02440e+02  1.96052e+03  6.81542e-01  1.00000e+00  3.82067e+01  0.00000e+00  1.67625e+01 
 5.73326e-03  3.47172e-03  0.00000e+00  3.47944e+00  8.34506e-04  3.60328e+02  3.60133e+02  8.37570e+00  8.53136e+00  6.82313e-01 -3.87147e+01  4.15954e+01  1.57583e+05 -1.56827e+05  1.22130e+03  0.00000e+00  1.97748e+03 -6.23008e+02  1.35448e+03  6.82315e-01  1.00000e+00  3.87163e+01  0.00000e+00  1.76746e+01 
 5.88069e-03  3.71014e-03 -5.35987e-21  3.47944e+00  8.15855e-04  3.60325e+02  3.60134e+02  8.34079e+00  8.49213e+00  6.83304e-01 -3.92575e+01  4.25466e+01  1.66235e+05 -1.66156e+05  1.24433e+03  0.00000e+00  1.32272e+03 -6.45255e+02  6.77468e+02  6.83304e-01  1.00000e+00  3.92591e+01  0.00000e+00  1.87051e+01 
 6.03395e-03  3.94857e-03  5.10973e-21  3.47944e+00  7.96684e-04  3.60323e+02  3.60134e+02  8.30238e+00  8.44927e+00  6.84359e-01 -3.98416e+01  4.35707e+01  1.75861e+05 -1.76516e+05  1.26868e+03  0.00000e+00  6.14221e+02 -6.69584e+02 -5.53625e+01  6.84359e-01  1.00000e+00  3.98432e+01  0.00000e+00  1.98612e+01 
 6.19261e-03  4.18701e-03  0.00000e+00  3.47944e+00  7.77124e-04  3.60320e+02  3.60134e+02  8.26090e+00  8.40324e+00  6.85643e-01 -4.04603e+01  4.46677e+01  1.86474e+05 -1.87931e+05  1.29453e+03  0.00000e+00 -1.62231e+02 -6.95799e+02 -8.58030e+02  6.85642e-01  1.00000e+00  4.04620e+01  0.00000e+00  2.11656e+01 
 6.35626e-03  4.42546e-03  0.00000e+00  3.47944e+00  7.57169e-04  3.60317e+02  3.60135e+02  8.21529e+00  8.35298e+00  6.86913e-01 -4.11299e+01  4.58453e+01  1.98321e+05 -2.00609e+05  1.32163e+03  0.00000e+00 -9.66117e+02 -7.24618e+02 -1.69073e+03  6.86915e-01  1.00000e+00  4.11317e+01  0.00000e+00  2.26270e+01 
 6.52453e-03  4.66392e-03 -8.96437e-21  3.47944e+00  7.36965e-04  3.60314e+02  3.60135e+02  8.16646e+00  8.29938e+00  6.88493e-01 -4.18403e+01  4.71025e+01  2.11325e+05 -2.14606e+05  1.35047e+03  0.00000e+00 -1.93087e+03 -7.55609e+02 -2.68648e+03  6.88497e-01  1.00000e+00  4.18421e+01  0.00000e+00  2.42750e+01 
 6.69707e-03  4.90238e-03  1.72236e-20  3.47944e+00  7.16428e-04  3.60311e+02  3.60136e+02  8.11264e+00  8.24069e+00  6.89986e-01 -4.26212e+01  4.84533e+01  2.25926e+05 -2.30248e+05  1.38074e+03  0.00000e+00 -2.94122e+03 -7.90071e+02 -3.73129e+03  6.89991e-01  1.00000e+00  4.26230e+01  0.00000e+00  2.61222e+01 
 6.87356e-03  5.14086e-03  8.28595e-21  3.47944e+00  6.95676e-04  3.60308e+02  3.60136e+02  8.05581e+00  8.17891e+00  6.91684e-01 -4.34656e+01  4.98991e+01  2.42120e+05 -2.47623e+05  1.41330e+03  0.00000e+00 -4.08960e+03 -8.27729e+02 -4.91733e+03  6.91691e-01  1.00000e+00  4.34675e+01  0.00000e+00  2.82115e+01 
 7.05370e-03  5.37934e-03 -1.59677e-20  3.47944e+00  6.74640e-04  3.60306e+02  3.60137e+02  7.99211e+00  8.11019e+00  6.93341e-01 -4.44194e+01  5.14556e+01  2.60346e+05 -2.67190e+05  1.44677e+03  0.00000e+00 -5.39759e+03 -8.70197e+02 -6.26778e+03  6.93347e-01  1.00000e+00  4.44214e+01  0.00000e+00  3.05660e+01 
 7.23722e-03  5.61783e-03  0.00000e+00  3.47944e+00  6.53468e-04  3.60303e+02  3.60138e+02  7.92636e+00  8.03937e+00  6.95264e-01 -4.54725e+01  5.31234e+01  2.80613e+05 -2.89014e+05  1.48267e+03  0.00000e+00 -6.91780e+03 -9.17161e+02 -7.83496e+03  6.95270e-01  1.00000e+00  4.54747e+01  0.00000e+00  3.32476e+01 
 7.42387e-03  5.85632e-03  0.00000e+00  3.47944e+00  6.32031e-04  3.60300e+02  3.60138e+02  7.85043e+00  7.95831e+00  6.97021e-01 -4.67027e+01  5.49260e+01  3.03657e+05 -3.13873e+05  1.51911e+03  0.00000e+00 -8.69685e+03 -9.71484e+02 -9.66833e+03  6.97025e-01  1.00000e+00  4.67049e+01  0.00000e+00  3.62739e+01 
 7.61342e-03  6.09482e-03  0.00000e+00  3.47944e+00  6.10456e-04  3.60297e+02  3.60139e+02  7.77435e+00  7.87692e+00  6.99131e-01 -4.81023e+01  5.68680e+01  3.29454e+05 -3.41872e+05  1.56141e+03  0.00000e+00 -1.08567e+04 -1.03285e+03 -1.18895e+04  6.99135e-01  1.00000e+00  4.81047e+01  0.00000e+00  3.97549e+01 
 7.80566e-03  6.33332e-03  0.00000e+00  3.47944e+00  5.88610e-04  3.60295e+02  3.60140e+02  7.68214e+00  7.77944e+00  7.01054e-01 -4.98138e+01  5.89796e+01  3.59027e+05 -3.74280e+05  1.60122e+03  0.00000e+00 -1.36523e+04 -1.10628e+03 -1.47586e+04  7.01058e-01  1.00000e+00  4.98162e+01  0.00000e+00  4.37009e+01 
 8.00039e-03  6.57182e-03  0.00000e+00  3.47944e+00  5.66562e-04  3.60293e+02  3.60141e+02  7.59420e+00  7.68591e+00  7.03096e-01 -5.18458e+01  6.12758e+01  3.92793e+05 -4.11567e+05  1.65040e+03  0.00000e+00 -1.71234e+04 -1.19276e+03 -1.83162e+04  7.03102e-01  1.00000e+00  5.18484e+01  0.00000e+00  4.82530e+01 
 8.19744e-03  6.81033e-03  1.31016e-20  3.47944e+00  5.44185e-04  3.60292e+02  3.60142e+02  7.48504e+00  7.57156e+00  7.05294e-01 -5.44555e+01  6.37967e+01  4.31786e+05 -4.55034e+05  1.68801e+03  0.00000e+00 -2.15598e+04 -1.30027e+03 -2.28601e+04  7.05301e-01  1.00000e+00  5.44582e+01  0.00000e+00  5.35678e+01 
 8.39664e-03  7.04884e-03  0.00000e+00  3.47944e+00  5.21421e-04  3.60291e+02  3.60142e+02  7.38286e+00  7.46355e+00  7.07360e-01 -5.77468e+01  6.65831e+01  4.77672e+05 -5.06235e+05  1.74160e+03  0.00000e+00 -2.68209e+04 -1.43488e+03 -2.82558e+04  7.07366e-01  1.00000e+00  5.77497e+01  0.00000e+00  5.98099e+01 
 8.59784e-03  7.28736e-03  0.00000e+00  3.47944e+00  4.98066e-04  3.60291e+02  3.60144e+02  7.25240e+00  7.32777e+00  7.09601e-01 -6.22310e+01  6.97068e+01  5.32365e+05 -5.67219e+05  1.78800e+03  0.00000e+00 -3.30665e+04 -1.61373e+03 -3.46803e+04  7.09608e-01  1.00000e+00  6.22341e+01  0.00000e+00  6.73622e+01 
 8.80092e-03  7.52587e-03  0.00000e+00  3.47944e+00  4.73974e-04  3.60293e+02  3.60145e+02  7.12610e+00  7.19509e+00  7.11831e-01 -6.83256e+01  7.32515e+01  5.98833e+05 -6.41746e+05  1.85120e+03  0.00000e+00 -4.10618e+04 -1.85604e+03 -4.29178e+04  7.11837e-01  1.00000e+00  6.83290e+01  0.00000e+00  7.65594e+01 
 9.00573e-03  7.76439e-03 -1.17014e-20  3.47944e+00  4.48710e-04  3.60297e+02  3.60146e+02  6.96830e+00  7.03184e+00  7.14046e-01 -7.72693e+01  7.73776e+01  6.82442e+05 -7.35444e+05  1.90907e+03  0.00000e+00 -5.10931e+04 -2.21035e+03 -5.33035e+04  7.14052e-01  1.00000e+00  7.72728e+01  0.00000e+00  8.81687e+01 
 9.21216e-03  8.00291e-03  0.00000e+00  3.47944e+00  4.22049e-04  3.60304e+02  3.60147e+02  6.80654e+00  6.86320e+00  7.16514e-01 -9.06459e+01  8.22675e+01  7.89916e+05 -8.56301e+05  1.98751e+03  0.00000e+00 -6.43979e+04 -2.74739e+03 -6.71453e+04  7.16520e-01  1.00000e+00  9.06498e+01  0.00000e+00  1.03288e+02 
 9.42012e-03  8.24144e-03  0.00000e+00  3.47944e+00  3.93278e-04  3.60317e+02  3.60148e+02  6.59699e+00  6.64777e+00  7.18798e-01 -1.12376e+02  8.82884e+01  9.35621e+05 -1.02303e+06  2.06616e+03  0.00000e+00 -8.53387e+04 -3.64375e+03 -8.89824e+04  7.18808e-01  1.00000e+00  1.12380e+02  0.00000e+00  1.23544e+02 
 9.62949e-03  8.47996e-03  0.00000e+00  3.47944e+00  3.61583e-04  3.60339e+02  3.60150e+02  6.38049e+00  6.42377e+00  7.22298e-01 -1.50019e+02  9.60299e+01  1.14214e+06 -1.26287e+06  2.17474e+03  0.00000e+00 -1.18560e+05 -5.26540e+03 -1.23825e+05  7.22308e-01  1.00000e+00  1.50024e+02  0.00000e+00  1.53290e+02 
 9.84019e-03  8.71849e-03  0.00000e+00  3.47944e+00  3.26149e-04  3.60381e+02  3.60152e+02  6.06996e+00  6.10755e+00  7.24816e-01 -2.23664e+02  1.06466e+02  1.46288e+06 -1.64541e+06  2.28656e+03  0.00000e+00 -1.80242e+05 -8.67249e+03 -1.88914e+05  7.24832e-01  1.00000e+00  2.23670e+02  0.00000e+00  1.97842e+02 
 1.00521e-02  8.95702e-03  0.00000e+00  3.47944e+00  2.83261e-04  3.60465e+02  3.60153e+02  5.75869e+00  5.78900e+00  7.29335e-01 -3.98157e+02  1.22590e+02  2.05611e+06 -2.32744e+06  2.48900e+03  0.00000e+00 -2.68843e+05 -1.76640e+04 -2.86507e+05  7.29323e-01  1.00000e+00  3.98163e+02  0.00000e+00  2.84705e+02 
 1.02653e-02  9.19555e-03  0.00000e+00  3.47944e+00  2.32692e-04  3.60677e+02  3.60156e+02  5.14443e+00  5.16991e+00  7.32263e-01 -9.46124e+02  1.49239e+02  3.33405e+06 -3.80947e+06  2.68298e+03  0.00000e+00 -4.72743e+05 -5.08995e+04 -5.23642e+05  7.32213e-01  1.00000e+00  9.46132e+02  0.00000e+00  4.68208e+02 
 1.04795e-02  9.43408e-03  0.00000e+00  3.47944e+00  1.69237e-04  3.61474e+02  3.60159e+02  4.36923e+00  4.38797e+00  7.40189e-01 -8.77074e+03  2.05207e+02  7.60918e+06 -7.32140e+06  3.17484e+03  1.21380e+06  1.50476e+06 -1.51048e+06 -5.71190e+03  7.40196e-01  1.00000e+00  8.77075e+03  4.69945e+03  1.22948e+03 
