# Code_Saturne plot output (1D profile)
#
# Iteration output: 4549
# Time output:      2.30005e+01
#
#COLUMN_TITLES: Distance | X | Y | Z | diameter_Field2 | temp_Field1 | temp_Field2 | Velocity_Field1[Z] | Velocity_Field2[Z] | vol_f_Field2 | mass_trans_Field1 | Xd_Field2 | BK | COAL | COMP | NUCL | W1 | MT | SMBR | ALPBB | CONDNUM | GAMA | GAMANUC | epsilon_Field1
 4.56474e-03  1.39645e-04  0.00000e+00  3.47944e+00  9.44354e-05  3.59633e+02  3.60050e+02  4.81904e+00  4.83652e+00  5.93312e-02  8.62602e+01  3.69023e+02  4.74989e+00 -4.38929e+05  2.21917e+03  0.00000e+00 -4.36705e+05  9.00960e+04 -3.46609e+05  5.93409e-02  1.00000e+00 -8.59559e+01  0.00000e+00  3.53872e-01 
 4.57812e-03  3.76525e-04  4.25872e-21  3.47944e+00  1.11253e-04  3.59635e+02  3.60050e+02  4.81863e+00  4.84019e+00  6.03173e-02  7.00986e+01  3.13239e+02  1.83427e+02 -3.38362e+05  1.88333e+03  0.00000e+00 -3.36296e+05  6.11293e+04 -2.75166e+05  6.03260e-02  1.00000e+00 -6.98496e+01  0.00000e+00  3.58778e-01 
 4.60371e-03  6.13858e-04  0.00000e+00  3.47944e+00  1.25658e-04  3.59640e+02  3.60050e+02  4.81744e+00  4.84240e+00  6.21594e-02  6.10614e+01  2.77331e+02  1.51844e+03 -2.85285e+05  1.66783e+03  0.00000e+00 -2.82098e+05  4.57446e+04 -2.36354e+05  6.21695e-02  1.00000e+00 -6.08419e+01  0.00000e+00  3.68434e-01 
 4.64138e-03  8.51483e-04  0.00000e+00  3.47944e+00  1.37541e-04  3.59647e+02  3.60050e+02  4.81566e+00  4.84333e+00  6.48593e-02  5.58305e+01  2.53371e+02  5.74144e+03 -2.57954e+05  1.52396e+03  0.00000e+00 -2.50689e+05  3.66191e+04 -2.14070e+05  6.48696e-02  1.00000e+00 -5.56262e+01  0.00000e+00  3.83034e-01 
 4.69084e-03  1.08931e-03  0.00000e+00  3.47944e+00  1.47398e-04  3.59657e+02  3.60050e+02  4.81326e+00  4.84307e+00  6.84465e-02  5.28058e+01  2.36426e+02  1.44658e+04 -2.45487e+05  1.42207e+03  0.00000e+00 -2.29599e+05  3.06226e+04 -1.98977e+05  6.84565e-02  1.00000e+00 -5.26079e+01  0.00000e+00  4.02923e-01 
 4.75174e-03  1.32727e-03  1.05001e-20  3.47944e+00  1.55416e-04  3.59670e+02  3.60050e+02  4.81023e+00  4.84167e+00  7.29635e-02  5.12400e+01  2.24229e+02  2.86134e+04 -2.43477e+05  1.34849e+03  0.00000e+00 -2.13515e+05  2.64340e+04 -1.87081e+05  7.29718e-02  1.00000e+00 -5.10418e+01  0.00000e+00  4.28562e-01 
 4.82366e-03  1.56534e-03  0.00000e+00  3.47944e+00  1.61704e-04  3.59685e+02  3.60050e+02  4.80653e+00  4.83916e+00  7.84626e-02  5.07187e+01  2.15510e+02  4.84281e+04 -2.50064e+05  1.29548e+03  0.00000e+00 -2.00340e+05  2.33812e+04 -1.76959e+05  7.84736e-02  1.00000e+00 -5.05148e+01  0.00000e+00  4.60572e-01 
 4.90611e-03  1.80349e-03  8.81027e-21  3.47944e+00  1.66400e-04  3.59702e+02  3.60050e+02  4.80213e+00  4.83552e+00  8.49793e-02  5.09397e+01  2.09428e+02  7.38986e+04 -2.64387e+05  1.25810e+03  0.00000e+00 -1.89231e+05  2.10661e+04 -1.68165e+05  8.49922e-02  1.00000e+00 -5.07252e+01  0.00000e+00  4.99730e-01 
 4.99859e-03  2.04170e-03  0.00000e+00  3.47944e+00  1.69691e-04  3.59722e+02  3.60050e+02  4.79696e+00  4.83077e+00  9.25463e-02  5.16724e+01  2.05366e+02  1.05116e+05 -2.86250e+05  1.23261e+03  0.00000e+00 -1.79902e+05  1.92368e+04 -1.60665e+05  9.25605e-02  1.00000e+00 -5.14428e+01  0.00000e+00  5.47003e-01 
 5.10055e-03  2.27996e-03  7.58893e-21  3.47944e+00  1.71798e-04  3.59743e+02  3.60050e+02  4.79093e+00  4.82487e+00  1.01194e-01  5.27143e+01  2.02848e+02  1.42450e+05 -3.15846e+05  1.21613e+03  0.00000e+00 -1.72180e+05  1.77225e+04 -1.54458e+05  1.01210e-01  1.00000e+00 -5.24650e+01  0.00000e+00  6.03527e-01 
 5.21143e-03  2.51826e-03  7.09702e-21  3.47944e+00  1.72942e-04  3.59765e+02  3.60050e+02  4.78395e+00  4.81781e+00  1.10936e-01  5.38762e+01  2.01505e+02  1.86544e+05 -3.53612e+05  1.20649e+03  0.00000e+00 -1.65862e+05  1.64075e+04 -1.49454e+05  1.10953e-01  1.00000e+00 -5.36028e+01  0.00000e+00  6.70643e-01 
 5.33068e-03  2.75659e-03  1.33300e-20  3.47944e+00  1.73331e-04  3.59789e+02  3.60050e+02  4.77583e+00  4.80961e+00  1.21742e-01  5.49754e+01  2.01053e+02  2.38193e+05 -4.00066e+05  1.20305e+03  0.00000e+00 -1.60670e+05  1.52156e+04 -1.45454e+05  1.21759e-01  1.00000e+00 -5.46732e+01  0.00000e+00  7.49853e-01 
 5.45775e-03  2.99495e-03  1.25651e-20  3.47944e+00  1.73141e-04  3.59812e+02  3.60050e+02  4.77219e+00  4.80758e+00  1.33578e-01  5.59269e+01  2.01273e+02  2.99393e+05 -4.56161e+05  1.19558e+03  0.00000e+00 -1.55573e+05  1.41159e+04 -1.41457e+05  1.33596e-01  1.00000e+00 -5.55911e+01  0.00000e+00  8.44508e-01 
 5.59212e-03  3.23333e-03  0.00000e+00  3.47944e+00  1.72529e-04  3.59836e+02  3.60050e+02  4.76126e+00  4.79593e+00  1.46429e-01  5.64025e+01  2.01988e+02  3.71161e+05 -5.22775e+05  1.19748e+03  0.00000e+00 -1.50416e+05  1.30246e+04 -1.37392e+05  1.46447e-01  1.00000e+00 -5.60292e+01  0.00000e+00  9.56798e-01 
 5.73326e-03  3.47172e-03  0.00000e+00  3.47944e+00  1.71626e-04  3.59860e+02  3.60050e+02  4.74873e+00  4.78252e+00  1.60190e-01  5.63527e+01  2.03051e+02  4.53211e+05 -6.00235e+05  1.20106e+03  0.00000e+00 -1.45822e+05  1.19490e+04 -1.33873e+05  1.60209e-01  1.00000e+00 -5.59378e+01  0.00000e+00  1.08764e+00 
 5.88069e-03  3.71014e-03 -5.35987e-21  3.47944e+00  1.70535e-04  3.59883e+02  3.60050e+02  4.73431e+00  4.76716e+00  1.74721e-01  5.56684e+01  2.04349e+02  5.46382e+05 -6.89026e+05  1.20572e+03  0.00000e+00 -1.41438e+05  1.08816e+04 -1.30556e+05  1.74739e-01  1.00000e+00 -5.52080e+01  0.00000e+00  1.24011e+00 
 6.03395e-03  3.94857e-03  5.10973e-21  3.47944e+00  1.69342e-04  3.59905e+02  3.60050e+02  4.71774e+00  4.74959e+00  1.89887e-01  5.42909e+01  2.05790e+02  6.51200e+05 -7.89526e+05  1.21082e+03  0.00000e+00 -1.37115e+05  9.82256e+03 -1.27293e+05  1.89906e-01  1.00000e+00 -5.37816e+01  0.00000e+00  1.41746e+00 
 6.19261e-03  4.18701e-03  0.00000e+00  3.47944e+00  1.68116e-04  3.59926e+02  3.60050e+02  4.69878e+00  4.72960e+00  2.05544e-01  5.22033e+01  2.07291e+02  7.67779e+05 -9.01847e+05  1.21587e+03  0.00000e+00 -1.32852e+05  8.77690e+03 -1.24075e+05  2.05564e-01  1.00000e+00 -5.16421e+01  0.00000e+00  1.62307e+00 
 6.35626e-03  4.42546e-03  0.00000e+00  3.47944e+00  1.66910e-04  3.59946e+02  3.60050e+02  4.67713e+00  4.70691e+00  2.21516e-01  4.94282e+01  2.08789e+02  8.95930e+05 -1.02572e+06  1.22028e+03  0.00000e+00 -1.28575e+05  7.75355e+03 -1.20821e+05  2.21538e-01  1.00000e+00 -4.88131e+01  0.00000e+00  1.86058e+00 
 6.52453e-03  4.66392e-03 -8.96437e-21  3.47944e+00  1.65764e-04  3.59963e+02  3.60050e+02  4.65258e+00  4.68132e+00  2.37641e-01  4.60345e+01  2.10232e+02  1.03504e+06 -1.16063e+06  1.22364e+03  0.00000e+00 -1.24367e+05  6.76320e+03 -1.17604e+05  2.37663e-01  1.00000e+00 -4.53639e+01  0.00000e+00  2.13373e+00 
 6.69707e-03  4.90238e-03  1.72236e-20  3.47944e+00  1.64703e-04  3.59980e+02  3.60050e+02  4.62489e+00  4.65258e+00  2.53759e-01  4.21281e+01  2.11587e+02  1.18433e+06 -1.30587e+06  1.22560e+03  0.00000e+00 -1.20306e+05  5.81760e+03 -1.14489e+05  2.53783e-01  1.00000e+00 -4.14012e+01  0.00000e+00  2.44661e+00 
 6.87356e-03  5.14086e-03  8.28595e-21  3.47944e+00  1.63739e-04  3.59994e+02  3.60050e+02  4.59383e+00  4.62048e+00  2.69721e-01  3.78367e+01  2.12834e+02  1.34272e+06 -1.46050e+06  1.22603e+03  0.00000e+00 -1.16550e+05  4.92737e+03 -1.11623e+05  2.69747e-01  1.00000e+00 -3.70535e+01  0.00000e+00  2.80331e+00 
 7.05370e-03  5.37934e-03 -1.59677e-20  3.47944e+00  1.62865e-04  3.60007e+02  3.60050e+02  4.55929e+00  4.58492e+00  2.85396e-01  3.33053e+01  2.13976e+02  1.50937e+06 -1.62374e+06  1.22484e+03  0.00000e+00 -1.13152e+05  4.10209e+03 -1.09050e+05  2.85426e-01  1.00000e+00 -3.24661e+01  0.00000e+00  3.20875e+00 
 7.23722e-03  5.61783e-03  0.00000e+00  3.47944e+00  1.62066e-04  3.60019e+02  3.60050e+02  4.52103e+00  4.54567e+00  3.00680e-01  2.86768e+01  2.15032e+02  1.68344e+06 -1.79498e+06  1.22210e+03  0.00000e+00 -1.10310e+05  3.34834e+03 -1.06962e+05  3.00713e-01  1.00000e+00 -2.77827e+01  0.00000e+00  3.66818e+00 
 7.42387e-03  5.85632e-03  0.00000e+00  3.47944e+00  1.61307e-04  3.60028e+02  3.60050e+02  4.47900e+00  4.50267e+00  3.15511e-01  2.40876e+01  2.16043e+02  1.86478e+06 -1.97429e+06  1.21794e+03  0.00000e+00 -1.08291e+05  2.67014e+03 -1.05621e+05  3.15549e-01  1.00000e+00 -2.31395e+01  0.00000e+00  4.18860e+00 
 7.61342e-03  6.09482e-03  0.00000e+00  3.47944e+00  1.60545e-04  3.60037e+02  3.60050e+02  4.43296e+00  4.45567e+00  3.29785e-01  1.96482e+01  2.17070e+02  2.05385e+06 -2.16187e+06  1.21275e+03  0.00000e+00 -1.06808e+05  2.06843e+03 -1.04739e+05  3.29820e-01  1.00000e+00 -1.86471e+01  0.00000e+00  4.77817e+00 
 7.80566e-03  6.33332e-03  0.00000e+00  3.47944e+00  1.59722e-04  3.60044e+02  3.60051e+02  4.38281e+00  4.40456e+00  3.43526e-01  1.54543e+01  2.18189e+02  2.25202e+06 -2.35977e+06  1.20677e+03  0.00000e+00 -1.06534e+05  1.54143e+03 -1.04992e+05  3.43558e-01  1.00000e+00 -1.44008e+01  0.00000e+00  5.44847e+00 
 8.00039e-03  6.57182e-03  0.00000e+00  3.47944e+00  1.58770e-04  3.60050e+02  3.60051e+02  4.32814e+00  4.34894e+00  3.56692e-01  1.15693e+01  2.19498e+02  2.46184e+06 -2.57062e+06  1.20042e+03  0.00000e+00 -1.07585e+05  1.08513e+03 -1.06500e+05  3.56721e-01  1.00000e+00 -1.04634e+01  0.00000e+00  6.21423e+00 
 8.19744e-03  6.81033e-03  1.31016e-20  3.47944e+00  1.57614e-04  3.60055e+02  3.60051e+02  4.26874e+00  4.28858e+00  3.69338e-01  8.03567e+00  2.21110e+02  2.68735e+06 -2.79919e+06  1.19413e+03  0.00000e+00 -1.10645e+05  6.93757e+02 -1.09952e+05  3.69366e-01  1.00000e+00 -6.87625e+00  0.00000e+00  7.09697e+00 
 8.39664e-03  7.04884e-03  0.00000e+00  3.47944e+00  1.56156e-04  3.60059e+02  3.60051e+02  4.20397e+00  4.22283e+00  3.81446e-01  4.87155e+00  2.23175e+02  2.93492e+06 -3.05200e+06  1.18840e+03  0.00000e+00 -1.15897e+05  3.60515e+02 -1.15536e+05  3.81473e-01  1.00000e+00 -3.65624e+00  0.00000e+00  8.12625e+00 
 8.59784e-03  7.28736e-03  0.00000e+00  3.47944e+00  1.54302e-04  3.60063e+02  3.60051e+02  4.13309e+00  4.15093e+00  3.93136e-01  2.07824e+00  2.25857e+02  3.21303e+06 -3.33919e+06  1.18378e+03  0.00000e+00 -1.24984e+05  7.77354e+01 -1.24906e+05  3.93164e-01  1.00000e+00 -8.02883e-01  0.00000e+00  9.34479e+00 
 8.80092e-03  7.52587e-03  0.00000e+00  3.47944e+00  1.51916e-04  3.60065e+02  3.60052e+02  4.05553e+00  4.07230e+00  4.04391e-01 -1.11598e+00  2.29406e+02  3.53615e+06 -3.67552e+06  1.18087e+03  0.00000e+00 -1.38186e+05 -3.54292e+02 -1.38540e+05  4.04424e-01  1.00000e+00  3.70584e+00  0.00000e+00  1.08188e+01 
 9.00573e-03  7.76439e-03 -1.17014e-20  3.47944e+00  1.48864e-04  3.60067e+02  3.60052e+02  3.96836e+00  3.98400e+00  4.15397e-01 -5.99394e+00  2.34111e+02  3.92262e+06 -4.08319e+06  1.18051e+03  0.00000e+00 -1.59396e+05 -8.27263e+02 -1.60223e+05  4.15430e-01  1.00000e+00  8.70986e+00  0.00000e+00  1.26419e+01 
 9.21216e-03  8.00291e-03  0.00000e+00  3.47944e+00  1.44914e-04  3.60069e+02  3.60052e+02  3.87306e+00  3.88747e+00  4.26174e-01 -1.12562e+01  2.40494e+02  4.40936e+06 -4.60107e+06  1.18391e+03  0.00000e+00 -1.90523e+05 -1.34289e+03 -1.91866e+05  4.26205e-01  1.00000e+00  1.41202e+01  0.00000e+00  1.49893e+01 
 9.42012e-03  8.24144e-03  0.00000e+00  3.47944e+00  1.39860e-04  3.60072e+02  3.60053e+02  3.75924e+00  3.77233e+00  4.36969e-01 -1.84112e+01  2.49187e+02  5.04478e+06 -5.28784e+06  1.19153e+03  0.00000e+00 -2.41865e+05 -2.06194e+03 -2.43927e+05  4.36999e-01  1.00000e+00  2.14545e+01  0.00000e+00  1.81135e+01 
 9.62949e-03  8.47996e-03  0.00000e+00  3.47944e+00  1.33268e-04  3.60075e+02  3.60053e+02  3.63257e+00  3.64386e+00  4.47738e-01 -3.07964e+01  2.61514e+02  5.94057e+06 -6.26380e+06  1.20952e+03  0.00000e+00 -3.22020e+05 -3.35358e+03 -3.25373e+05  4.47769e-01  1.00000e+00  3.40682e+01  0.00000e+00  2.25603e+01 
 9.84019e-03  8.71849e-03  0.00000e+00  3.47944e+00  1.24758e-04  3.60082e+02  3.60054e+02  3.46546e+00  3.47513e+00  4.58780e-01 -5.80331e+01  2.79356e+02  7.27712e+06 -7.74394e+06  1.23330e+03  0.00000e+00 -4.65585e+05 -6.32214e+03 -4.71907e+05  4.58807e-01  1.00000e+00  6.16046e+01  0.00000e+00  2.92673e+01 
 1.00521e-02  8.95702e-03  0.00000e+00  3.47944e+00  1.13361e-04  3.60099e+02  3.60054e+02  3.28058e+00  3.28872e+00  4.70106e-01 -1.34573e+02  3.07444e+02  9.64161e+06 -1.03336e+07  1.27588e+03  0.00000e+00 -6.90758e+05 -1.52747e+04 -7.06032e+05  4.70128e-01  1.00000e+00  1.38578e+02  0.00000e+00  4.13479e+01 
 1.02653e-02  9.19555e-03  0.00000e+00  3.47944e+00  9.86184e-05  3.60155e+02  3.60055e+02  2.97483e+00  2.98153e+00  4.82399e-01 -4.36935e+02  3.53411e+02  1.45438e+07 -1.55336e+07  1.32114e+03  0.00000e+00 -9.88487e+05 -5.45274e+04 -1.04301e+06  4.82418e-01  1.00000e+00  4.41577e+02  0.00000e+00  6.77713e+01 
 1.04795e-02  9.43408e-03  0.00000e+00  3.47944e+00  8.10316e-05  3.60449e+02  3.60056e+02  2.51776e+00  2.52095e+00  4.99793e-01 -5.95928e+03  4.30121e+02  2.88982e+07 -2.86237e+07  1.40741e+03  2.38838e+06  2.66427e+06 -2.80628e+06 -1.42003e+05  4.99812e-01  1.00000e+00  5.96485e+03  3.38336e+03  1.68532e+02 
