# Code_Saturne plot output (1D profile)
#
# Iteration output: 3394
# Time output:      2.30005e+01
#
#COLUMN_TITLES: Distance | X | Y | Z | diameter_Field2 | temp_Field1 | temp_Field2 | Velocity_Field1[Z] | Velocity_Field2[Z] | vol_f_Field2 | mass_trans_Field1 | Xd_Field2 | BK | COAL | COMP | NUCL | W1 | MT | SMBR | ALPBB | CONDNUM | GAMA | GAMANUC | epsilon_Field1
 4.56474e-03  1.39645e-04  0.00000e+00  3.47944e+00  1.16744e-05  3.57005e+02  3.60046e+02  3.77490e+00  3.77541e+00  1.07544e-13  1.98865e-08  2.98637e+03  0.00000e+00 -2.78092e-05  6.39326e+03  0.00000e+00  6.39326e+03  1.55943e+01  7.37784e+07  1.21120e-13  1.21120e-07 -1.98865e-08  0.00000e+00  2.06388e-01 
 4.57812e-03  3.76525e-04  4.25872e-21  3.47944e+00  1.36270e-05  3.57012e+02  3.60046e+02  3.77455e+00  3.77507e+00  5.49559e-13  9.47026e-08  2.55844e+03 1.74652e-258 -1.06610e-04  6.03967e+03  0.00000e+00  6.03967e+03  6.38842e+01  2.68166e+07  5.96111e-13  5.96111e-07 -9.47026e-08  0.00000e+00  2.08136e-01 
 4.60371e-03  6.13858e-04  0.00000e+00  3.47944e+00  1.46238e-05  3.57025e+02  3.60046e+02  3.77361e+00  3.77402e+00  3.95520e-12  6.48309e-07  2.38405e+03 3.49386e-229 -6.75485e-04  5.76476e+03  0.00000e+00  5.76476e+03  4.10763e+02  4.30511e+06  4.17350e-12  4.17350e-06 -6.48309e-07  0.00000e+00  2.11601e-01 
 4.64138e-03  8.51483e-04  0.00000e+00  3.47944e+00  1.48315e-05  3.57044e+02  3.60046e+02  3.77161e+00  3.77197e+00  3.15575e-11  5.12342e-06  2.35066e+03 1.63383e-220 -5.28882e-03  5.79536e+03  0.00000e+00  5.79535e+03  3.20890e+03  3.89254e+05  3.31006e-11  3.31006e-05 -5.12797e-06  0.00000e+00  2.16827e-01 
 4.69084e-03  1.08931e-03  0.00000e+00  3.47944e+00  1.48492e-05  3.57070e+02  3.60046e+02  3.76886e+00  3.76923e+00  2.54589e-10  4.15738e-05  2.34787e+03 1.09918e-213 -4.33994e-02  6.28134e+03  0.00000e+00  6.28130e+03  2.59322e+04  3.22135e+04  2.71195e-10  2.71195e-04 -4.16616e-05  0.00000e+00  2.23873e-01 
 4.75174e-03  1.32727e-03  1.05001e-20  3.47944e+00  1.48410e-05  3.57103e+02  3.60046e+02  3.76566e+00  3.76603e+00  2.06008e-09  3.76888e-04  2.34916e+03 1.94683e-207 -3.67147e-01  6.83948e+03  0.00000e+00  6.83912e+03  2.34802e+05  2.41641e+05  2.27020e-09  2.27020e-03 -3.77750e-04  0.00000e+00  2.32831e-01 
 4.82366e-03  1.56534e-03  0.00000e+00  3.47944e+00  1.47808e-05  3.57142e+02  3.60045e+02  3.76186e+00  3.76222e+00  1.78234e-08  3.16138e-03  2.35868e+03 5.55306e-201 -3.15112e+00  6.12962e+03  0.00000e+00  6.12647e+03  1.97015e+06  1.97628e+06  1.91828e-08  1.91828e-02 -3.16876e-03  0.00000e+00  2.43833e-01 
 4.90611e-03  1.80349e-03  8.81027e-21  3.47944e+00  1.47590e-05  3.57187e+02  3.60044e+02  3.75728e+00  3.75765e+00  1.54844e-07  2.62959e-02  2.36213e+03 3.84591e-193 -2.69410e+01  5.46328e+03  0.00000e+00  5.43634e+03  1.63586e+07  1.63640e+07  1.61684e-07  1.61684e-01 -2.63584e-02  0.00000e+00  2.57014e-01 
 4.99859e-03  2.04170e-03  0.00000e+00  3.47944e+00  1.52167e-05  3.57240e+02  3.60044e+02  3.75212e+00  3.75250e+00  1.28680e-06  1.99546e-01  2.29106e+03 3.64847e-177 -2.09969e+02  5.61456e+03  0.00000e+00  5.40459e+03  9.37163e+07  9.37217e+07  1.29091e-06  1.00000e+00 -2.00029e-01  0.00000e+00  2.72543e-01 
 5.10055e-03  2.27996e-03  7.58893e-21  3.47944e+00  1.88100e-05  3.57299e+02  3.60044e+02  3.74624e+00  3.74678e+00  8.11260e-06  9.93829e-01  1.85340e+03 1.77583e-116 -9.30656e+02  5.34657e+03  0.00000e+00  4.41591e+03  6.12676e+07  6.12720e+07  7.97382e-06  1.00000e+00 -9.96285e-01  0.00000e+00  2.90618e-01 
 5.21143e-03  2.51826e-03  7.09702e-21  3.47944e+00  2.31000e-05  3.57364e+02  3.60044e+02  3.73962e+00  3.74040e+00  3.72400e-05  3.35638e+00  1.50920e+03  5.90521e-76 -3.12320e+03  4.74594e+03  0.00000e+00  1.62274e+03  3.63419e+07  3.63435e+07  3.69754e-05  1.00000e+00 -3.36487e+00  0.00000e+00  3.11463e-01 
 5.33068e-03  2.75659e-03  1.33300e-20  3.47944e+00  2.79440e-05  3.57435e+02  3.60044e+02  3.73229e+00  3.73345e+00  1.19939e-04  7.94894e+00  1.24759e+03  7.65765e-50 -7.48522e+03  4.05907e+03  0.00000e+00 -3.42616e+03  2.20391e+07  2.20357e+07  1.19352e-04  1.00000e+00 -7.96960e+00  0.00000e+00  3.35337e-01 
 5.45775e-03  2.99495e-03  1.25651e-20  3.47944e+00  3.31530e-05  3.57513e+02  3.60044e+02  3.72423e+00  3.72590e+00  2.93960e-04  1.46164e+01  1.05156e+03  4.47118e-33 -1.41063e+04  3.49041e+03  0.00000e+00 -1.06159e+04  1.39169e+07  1.39063e+07  2.92918e-04  1.00000e+00 -1.46555e+01  0.00000e+00  3.62549e-01 
 5.59212e-03  3.23333e-03  0.00000e+00  3.47944e+00  3.85502e-05  3.57597e+02  3.60044e+02  3.71539e+00  3.71767e+00  5.87733e-04  2.24449e+01  9.04342e+02  3.99173e-22 -2.24410e+04  3.03489e+03  0.00000e+00 -1.94061e+04  9.18427e+06  9.16486e+06  5.86142e-04  1.00000e+00 -2.25070e+01  0.00000e+00  3.93514e-01 
 5.73326e-03  3.47172e-03  0.00000e+00  3.47944e+00  4.39796e-05  3.57685e+02  3.60044e+02  3.70573e+00  3.70868e+00  1.01219e-03  3.04213e+01  7.92700e+02  8.44759e-15 -3.17747e+04  2.67460e+03  0.00000e+00 -2.91001e+04  6.33301e+06  6.30391e+06  1.00995e-03  1.00000e+00 -3.05087e+01  0.00000e+00  4.28692e-01 
 5.88069e-03  3.71014e-03 -5.35987e-21  3.47944e+00  4.93270e-05  3.57779e+02  3.60044e+02  3.69523e+00  3.69891e+00  1.57503e-03  3.81816e+01  7.06766e+02  9.29968e-10 -4.18592e+04  2.38668e+03  0.00000e+00 -3.94726e+04  4.55359e+06  4.51412e+06  1.57192e-03  1.00000e+00 -3.82958e+01  0.00000e+00  4.68600e-01 
 6.03395e-03  3.94857e-03  5.10973e-21  3.47944e+00  5.45186e-05  3.57878e+02  3.60044e+02  3.68382e+00  3.68844e+00  2.34496e-03  4.56231e+01  6.39463e+02  3.48029e-06 -5.41255e+04  2.15704e+03  0.00000e+00 -5.19685e+04  3.30633e+06  3.25436e+06  2.34068e-03  1.00000e+00 -4.57658e+01  0.00000e+00  5.13957e-01 
 6.19261e-03  4.18701e-03  0.00000e+00  3.47944e+00  5.95187e-05  3.57981e+02  3.60044e+02  3.67141e+00  3.67693e+00  3.43676e-03  5.50313e+01  5.85743e+02  1.40065e-03 -7.04028e+04  1.97338e+03  0.00000e+00 -6.84294e+04  2.49243e+06  2.42400e+06  3.43095e-03  1.00000e+00 -5.52120e+01  0.00000e+00  5.65573e-01 
 6.35626e-03  4.42546e-03  0.00000e+00  3.47944e+00  6.44597e-05  3.58090e+02  3.60044e+02  3.65802e+00  3.66443e+00  4.93965e-03  6.57917e+01  5.40845e+02  1.34580e-01 -9.11338e+04  1.81880e+03  0.00000e+00 -8.93149e+04  1.91429e+06  1.82498e+06  4.93201e-03  1.00000e+00 -6.60197e+01  0.00000e+00  6.24688e-01 
 6.52453e-03  4.66392e-03 -8.96437e-21  3.47944e+00  6.93998e-05  3.58202e+02  3.60044e+02  3.64344e+00  3.65076e+00  6.96312e-03  7.78124e+01  5.02346e+02  4.70679e+00 -1.16988e+05  1.68575e+03  0.00000e+00 -1.15297e+05  1.49198e+06  1.37669e+06  6.95307e-03  1.00000e+00 -7.80985e+01  0.00000e+00  6.92617e-01 
 6.69707e-03  4.90238e-03  1.72236e-20  3.47944e+00  7.43332e-05  3.58320e+02  3.60044e+02  3.62762e+00  3.63581e+00  9.64164e-03  9.10682e+01  4.69007e+02  7.69571e+01 -1.48981e+05  1.56981e+03  0.00000e+00 -1.47334e+05  1.17756e+06  1.03022e+06  9.62895e-03  1.00000e+00 -9.14255e+01  0.00000e+00  7.70918e-01 
 6.87356e-03  5.14086e-03  8.28595e-21  3.47944e+00  7.92083e-05  3.58440e+02  3.60044e+02  3.61048e+00  3.61950e+00  1.31337e-02  1.05533e+02  4.40141e+02  6.99154e+02 -1.88474e+05  1.46866e+03  0.00000e+00 -1.86306e+05  9.40288e+05  7.53982e+05  1.31175e-02  1.00000e+00 -1.05978e+02  0.00000e+00  8.61699e-01 
 7.05370e-03  5.37934e-03 -1.59677e-20  3.47944e+00  8.39409e-05  3.58564e+02  3.60044e+02  3.59183e+00  3.60161e+00  1.76337e-02  1.21236e+02  4.15326e+02  3.99848e+03 -2.37532e+05  1.38053e+03  0.00000e+00 -2.32153e+05  7.59390e+05  5.27237e+05  1.76129e-02  1.00000e+00 -1.21790e+02  0.00000e+00  9.67673e-01 
 7.23722e-03  5.61783e-03  0.00000e+00  3.47944e+00  8.83962e-05  3.58691e+02  3.60044e+02  3.57134e+00  3.58181e+00  2.33521e-02  1.38162e+02  3.94393e+02  1.57760e+04 -2.98877e+05  1.30542e+03  0.00000e+00 -2.81796e+05  6.20752e+05  3.38956e+05  2.33261e-02  1.00000e+00 -1.38850e+02  0.00000e+00  1.09178e+00 
 7.42387e-03  5.85632e-03  0.00000e+00  3.47944e+00  9.24080e-05  3.58818e+02  3.60044e+02  3.54904e+00  3.56006e+00  3.05383e-02  1.56330e+02  3.77271e+02  4.63999e+04 -3.76642e+05  1.24229e+03  0.00000e+00 -3.28999e+05  5.13979e+05  1.84980e+05  3.05071e-02  1.00000e+00 -1.57189e+02  0.00000e+00  1.23830e+00 
 7.61342e-03  6.09482e-03  0.00000e+00  3.47944e+00  9.58165e-05  3.58946e+02  3.60044e+02  3.52441e+00  3.53586e+00  3.94479e-02  1.75613e+02  3.63851e+02  1.08556e+05 -4.76260e+05  1.19119e+03  0.00000e+00 -3.66512e+05  4.31300e+05  6.47874e+04  3.94105e-02  1.00000e+00 -1.76688e+02  0.00000e+00  1.41275e+00 
 7.80566e-03  6.33332e-03  0.00000e+00  3.47944e+00  9.85219e-05  3.59074e+02  3.60044e+02  3.49718e+00  3.50893e+00  5.03965e-02  1.95800e+02  3.53860e+02  2.14204e+05 -6.05494e+05  1.15056e+03  0.00000e+00 -3.90140e+05  3.66346e+05 -2.37945e+04  5.03495e-02  1.00000e+00 -1.97152e+02  0.00000e+00  1.62340e+00 
 8.00039e-03  6.57182e-03  0.00000e+00  3.47944e+00  1.00510e-04  3.59198e+02  3.60044e+02  3.46687e+00  3.47883e+00  6.36129e-02  2.15589e+02  3.46863e+02  3.72709e+05 -7.72669e+05  1.11923e+03  0.00000e+00 -3.98841e+05  3.13549e+05 -8.52919e+04  6.35537e-02  1.00000e+00 -2.17292e+02  0.00000e+00  1.87957e+00 
 8.19744e-03  6.81033e-03  1.31016e-20  3.47944e+00  1.01842e-04  3.59319e+02  3.60044e+02  3.43283e+00  3.44493e+00  7.93881e-02  2.29670e+02  3.42326e+02  5.92850e+05 -9.88951e+05  1.09461e+03  0.00000e+00 -3.95006e+05  2.64457e+05 -1.30549e+05  7.93229e-02  1.00000e+00 -2.31778e+02  0.00000e+00  2.19436e+00 
 8.39664e-03  7.04884e-03  0.00000e+00  3.47944e+00  1.02581e-04  3.59434e+02  3.60044e+02  3.39423e+00  3.40608e+00  9.78490e-02  2.39103e+02  3.39861e+02  8.82418e+05 -1.26629e+06  1.07579e+03  0.00000e+00 -3.82794e+05  2.22106e+05 -1.60688e+05  9.77796e-02  1.00000e+00 -2.41697e+02  0.00000e+00  2.58411e+00 
 8.59784e-03  7.28736e-03  0.00000e+00  3.47944e+00  1.02818e-04  3.59542e+02  3.60045e+02  3.35004e+00  3.36160e+00  1.19073e-01  2.42147e+02  3.39077e+02  1.25286e+06 -1.61934e+06  1.05962e+03  0.00000e+00 -3.65426e+05  1.84815e+05 -1.80611e+05  1.18994e-01  1.00000e+00 -2.45318e+02  0.00000e+00  3.07564e+00 
 8.80092e-03  7.52587e-03  0.00000e+00  3.47944e+00  1.02647e-04  3.59641e+02  3.60045e+02  3.29909e+00  3.31020e+00  1.42890e-01  2.36935e+02  3.39642e+02  1.71237e+06 -2.06184e+06  1.04571e+03  0.00000e+00 -3.48421e+05  1.51404e+05 -1.97017e+05  1.42797e-01  1.00000e+00 -2.40770e+02  0.00000e+00  3.69651e+00 
 9.00573e-03  7.76439e-03 -1.17014e-20  3.47944e+00  1.02115e-04  3.59731e+02  3.60045e+02  3.23935e+00  3.24991e+00  1.69221e-01  2.22868e+02  3.41414e+02  2.27910e+06 -2.61619e+06  1.03139e+03  0.00000e+00 -3.36063e+05  1.21402e+05 -2.14661e+05  1.69117e-01  1.00000e+00 -2.27459e+02  0.00000e+00  4.49777e+00 
 9.21216e-03  8.00291e-03  0.00000e+00  3.47944e+00  1.01206e-04  3.59810e+02  3.60045e+02  3.16893e+00  3.17888e+00  1.97156e-01  1.99114e+02  3.44481e+02  2.95955e+06 -3.29698e+06  1.01771e+03  0.00000e+00 -3.36406e+05  9.45342e+04 -2.41871e+05  1.97043e-01  1.00000e+00 -2.04536e+02  0.00000e+00  5.53131e+00 
 9.42012e-03  8.24144e-03  0.00000e+00  3.47944e+00  9.97948e-05  3.59879e+02  3.60045e+02  3.08779e+00  3.09694e+00  2.27000e-01  1.67385e+02  3.49354e+02  3.80083e+06 -4.16555e+06  1.00333e+03  0.00000e+00 -3.63723e+05  7.07229e+04 -2.93000e+05  2.26883e-01  1.00000e+00 -1.73739e+02  0.00000e+00  6.93288e+00 
 9.62949e-03  8.47996e-03  0.00000e+00  3.47944e+00  9.75813e-05  3.59938e+02  3.60045e+02  2.98624e+00  2.99462e+00  2.57079e-01  1.27470e+02  3.57280e+02  4.85163e+06 -5.28429e+06  9.90859e+02  0.00000e+00 -4.31670e+05  4.95691e+04 -3.82101e+05  2.56960e-01  1.00000e+00 -1.34859e+02  0.00000e+00  8.87376e+00 
 9.84019e-03  8.71849e-03  0.00000e+00  3.47944e+00  9.40647e-05  3.59990e+02  3.60046e+02  2.86781e+00  2.87482e+00  2.88365e-01  7.88301e+01  3.70639e+02  6.30163e+06 -6.88929e+06  9.84906e+02  0.00000e+00 -5.86675e+05  2.97340e+04 -5.56941e+05  2.88240e-01  1.00000e+00 -8.74739e+01  0.00000e+00  1.18424e+01 
 1.00521e-02  8.95702e-03  0.00000e+00  3.47944e+00  8.82681e-05  3.60040e+02  3.60046e+02  2.70453e+00  2.71021e+00  3.18347e-01  1.06862e+01  3.94982e+02  8.56980e+06 -9.44016e+06  9.88304e+02  0.00000e+00 -8.69378e+05  6.87964e+03 -8.62498e+05  3.18199e-01  1.00000e+00 -2.09666e+01  0.00000e+00  1.68529e+01 
 1.02653e-02  9.19555e-03  0.00000e+00  3.47944e+00  7.92587e-05  3.60105e+02  3.60046e+02  2.49536e+00  2.49943e+00  3.50864e-01 -2.61230e+02  4.39884e+02  1.32947e+07 -1.46102e+07  1.00115e+03  0.00000e+00 -1.31445e+06 -7.93032e+04 -1.39376e+06  3.50638e-01  1.00000e+00  2.39144e+02  0.00000e+00  2.81091e+01 
 1.04795e-02  9.43408e-03  0.00000e+00  3.47944e+00  6.61329e-05  3.60337e+02  3.60047e+02  2.11188e+00  2.11351e+00  3.91379e-01 -4.94483e+03  5.27196e+02  2.82576e+07 -2.91710e+07  1.06029e+03  5.10391e+06  4.19162e+06 -4.44467e+06 -2.53045e+05  3.91123e-01  1.00000e+00  4.91726e+03  2.99776e+03  7.00965e+01 
