# Code_Saturne plot output (1D profile)
#
# Iteration output: 7759
# Time output:      2.30016e+01
#
#COLUMN_TITLES: Distance | X | Y | Z | diameter_Field2 | temp_Field1 | temp_Field2 | Velocity_Field1[Z] | Velocity_Field2[Z] | vol_f_Field2 | mass_trans_Field1 | Xd_Field2 | BK | COAL | COMP | NUCL | W1 | MT | SMBR | ALPBB | CONDNUM | GAMA | GAMANUC | epsilon_Field1
 4.56474e-03  1.39645e-04  0.00000e+00  3.47944e+00  5.65227e-04  3.60219e+02  3.60104e+02  7.65630e+00  7.75628e+00  6.03574e-01 -2.95709e+01  6.14982e+01  2.66489e+05 -3.15482e+05  1.22626e+03  0.00000e+00 -4.77664e+04 -1.68460e+03 -4.94510e+04  6.03544e-01  1.00000e+00  2.95601e+01  0.00000e+00  6.02164e+00 
 4.57812e-03  3.76525e-04  4.25872e-21  3.47944e+00  5.66091e-04  3.60219e+02  3.60104e+02  7.65473e+00  7.75530e+00  6.03686e-01 -2.94934e+01  6.14043e+01  2.66460e+05 -3.14077e+05  1.22429e+03  0.00000e+00 -4.63921e+04 -1.67729e+03 -4.80694e+04  6.03659e-01  1.00000e+00  2.94826e+01  0.00000e+00  6.05741e+00 
 4.60371e-03  6.13858e-04  0.00000e+00  3.47944e+00  5.65402e-04  3.60218e+02  3.60104e+02  7.65048e+00  7.75097e+00  6.03873e-01 -2.94808e+01  6.14791e+01  2.68069e+05 -3.14900e+05  1.22526e+03  0.00000e+00 -4.56054e+04 -1.67809e+03 -4.72835e+04  6.03847e-01  1.00000e+00  2.94700e+01  0.00000e+00  6.12717e+00 
 4.64138e-03  8.51483e-04  0.00000e+00  3.47944e+00  5.63556e-04  3.60218e+02  3.60104e+02  7.64429e+00  7.74434e+00  6.04163e-01 -2.95128e+01  6.16805e+01  2.71037e+05 -3.17390e+05  1.22844e+03  0.00000e+00 -4.51244e+04 -1.68458e+03 -4.68090e+04  6.04140e-01  1.00000e+00  2.95019e+01  0.00000e+00  6.23155e+00 
 4.69084e-03  1.08931e-03  0.00000e+00  3.47944e+00  5.60776e-04  3.60218e+02  3.60104e+02  7.63602e+00  7.73537e+00  6.04543e-01 -2.95760e+01  6.19863e+01  2.75259e+05 -3.21248e+05  1.23339e+03  0.00000e+00 -4.47560e+04 -1.69548e+03 -4.64515e+04  6.04523e-01  1.00000e+00  2.95650e+01  0.00000e+00  6.37186e+00 
 4.75174e-03  1.32727e-03  1.05001e-20  3.47944e+00  5.57195e-04  3.60217e+02  3.60104e+02  7.62571e+00  7.72417e+00  6.05020e-01 -2.96626e+01  6.23847e+01  2.80679e+05 -3.26339e+05  1.23987e+03  0.00000e+00 -4.44199e+04 -1.71000e+03 -4.61299e+04  6.05002e-01  1.00000e+00  2.96515e+01  0.00000e+00  6.54942e+00 
 4.82366e-03  1.56534e-03  0.00000e+00  3.47944e+00  5.52876e-04  3.60216e+02  3.60104e+02  7.61334e+00  7.71070e+00  6.05590e-01 -2.97690e+01  6.28720e+01  2.87310e+05 -3.32637e+05  1.24779e+03  0.00000e+00 -4.40795e+04 -1.72790e+03 -4.58074e+04  6.05575e-01  1.00000e+00  2.97578e+01  0.00000e+00  6.76602e+00 
 4.90611e-03  1.80349e-03  8.81027e-21  3.47944e+00  5.47852e-04  3.60215e+02  3.60104e+02  7.59890e+00  7.69500e+00  6.06256e-01 -2.98942e+01  6.34487e+01  2.95196e+05 -3.40187e+05  1.25715e+03  0.00000e+00 -4.37345e+04 -1.74913e+03 -4.54836e+04  6.06243e-01  1.00000e+00  2.98827e+01  0.00000e+00  7.02387e+00 
 4.99859e-03  2.04170e-03  0.00000e+00  3.47944e+00  5.42146e-04  3.60214e+02  3.60104e+02  7.58234e+00  7.67700e+00  6.07016e-01 -3.00375e+01  6.41165e+01  3.04399e+05 -3.49062e+05  1.26796e+03  0.00000e+00 -4.33954e+04 -1.77377e+03 -4.51692e+04  6.07005e-01  1.00000e+00  3.00259e+01  0.00000e+00  7.32548e+00 
 5.10055e-03  2.27996e-03  7.58893e-21  3.47944e+00  5.35778e-04  3.60213e+02  3.60104e+02  7.56362e+00  7.65668e+00  6.07864e-01 -3.01987e+01  6.48787e+01  3.15010e+05 -3.59362e+05  1.28026e+03  0.00000e+00 -4.30710e+04 -1.80195e+03 -4.48729e+04  6.07854e-01  1.00000e+00  3.01869e+01  0.00000e+00  7.67395e+00 
 5.21143e-03  2.51826e-03  7.09702e-21  3.47944e+00  5.28775e-04  3.60212e+02  3.60104e+02  7.54267e+00  7.63398e+00  6.08813e-01 -3.03777e+01  6.57380e+01  3.27103e+05 -3.71204e+05  1.29405e+03  0.00000e+00 -4.28076e+04 -1.83374e+03 -4.46413e+04  6.08806e-01  1.00000e+00  3.03656e+01  0.00000e+00  8.07263e+00 
 5.33068e-03  2.75659e-03  1.33300e-20  3.47944e+00  5.21169e-04  3.60211e+02  3.60104e+02  7.51941e+00  7.60882e+00  6.09859e-01 -3.05735e+01  6.66977e+01  3.40788e+05 -3.84717e+05  1.30937e+03  0.00000e+00 -4.26188e+04 -1.86927e+03 -4.44881e+04  6.09855e-01  1.00000e+00  3.05612e+01  0.00000e+00  8.52566e+00 
 5.45775e-03  2.99495e-03  1.25651e-20  3.47944e+00  5.13001e-04  3.60210e+02  3.60104e+02  7.49374e+00  7.58111e+00  6.10998e-01 -3.07850e+01  6.77599e+01  3.56176e+05 -4.00026e+05  1.32621e+03  0.00000e+00 -4.25242e+04 -1.90857e+03 -4.44328e+04  6.10995e-01  1.00000e+00  3.07724e+01  0.00000e+00  9.03735e+00 
 5.59212e-03  3.23333e-03  0.00000e+00  3.47944e+00  5.04318e-04  3.60208e+02  3.60104e+02  7.46558e+00  7.55077e+00  6.12231e-01 -3.10103e+01  6.89267e+01  3.73390e+05 -4.17278e+05  1.34452e+03  0.00000e+00 -4.25437e+04 -1.95167e+03 -4.44953e+04  6.12231e-01  1.00000e+00  3.09973e+01  0.00000e+00  9.61316e+00 
 5.73326e-03  3.47172e-03  0.00000e+00  3.47944e+00  4.95175e-04  3.60207e+02  3.60105e+02  7.43478e+00  7.51769e+00  6.13543e-01 -3.12472e+01  7.01997e+01  3.92567e+05 -4.36612e+05  1.36430e+03  0.00000e+00 -4.26807e+04 -1.99859e+03 -4.46793e+04  6.13544e-01  1.00000e+00  3.12339e+01  0.00000e+00  1.02583e+01 
 5.88069e-03  3.71014e-03 -5.35987e-21  3.47944e+00  4.85626e-04  3.60205e+02  3.60105e+02  7.40126e+00  7.48177e+00  6.14946e-01 -3.14933e+01  7.15803e+01  4.13856e+05 -4.58199e+05  1.38544e+03  0.00000e+00 -4.29576e+04 -2.04922e+03 -4.50068e+04  6.14949e-01  1.00000e+00  3.14796e+01  0.00000e+00  1.09803e+01 
 6.03395e-03  3.94857e-03  5.10973e-21  3.47944e+00  4.75727e-04  3.60203e+02  3.60105e+02  7.36482e+00  7.44285e+00  6.16415e-01 -3.17469e+01  7.30701e+01  4.37425e+05 -4.82207e+05  1.40795e+03  0.00000e+00 -4.33731e+04 -2.10364e+03 -4.54768e+04  6.16419e-01  1.00000e+00  3.17327e+01  0.00000e+00  1.17853e+01 
 6.19261e-03  4.18701e-03  0.00000e+00  3.47944e+00  4.65534e-04  3.60202e+02  3.60105e+02  7.32540e+00  7.40087e+00  6.17981e-01 -3.20048e+01  7.46705e+01  4.63452e+05 -5.08846e+05  1.43175e+03  0.00000e+00 -4.39624e+04 -2.16164e+03 -4.61240e+04  6.17987e-01  1.00000e+00  3.19901e+01  0.00000e+00  1.26840e+01 
 6.35626e-03  4.42546e-03  0.00000e+00  3.47944e+00  4.55084e-04  3.60200e+02  3.60105e+02  7.28272e+00  7.35557e+00  6.19587e-01 -3.22677e+01  7.63855e+01  4.92200e+05 -5.38349e+05  1.45683e+03  0.00000e+00 -4.46923e+04 -2.22362e+03 -4.69160e+04  6.19595e-01  1.00000e+00  3.22526e+01  0.00000e+00  1.36840e+01 
 6.52453e-03  4.66392e-03 -8.96437e-21  3.47944e+00  4.44419e-04  3.60198e+02  3.60106e+02  7.23679e+00  7.30697e+00  6.21273e-01 -3.25337e+01  7.82191e+01  5.23933e+05 -5.71014e+05  1.48319e+03  0.00000e+00 -4.55972e+04 -2.28949e+03 -4.78867e+04  6.21282e-01  1.00000e+00  3.25180e+01  0.00000e+00  1.48006e+01 
 6.69707e-03  4.90238e-03  1.72236e-20  3.47944e+00  4.33574e-04  3.60196e+02  3.60106e+02  7.18710e+00  7.25457e+00  6.23010e-01 -3.28069e+01  8.01763e+01  5.58948e+05 -6.07174e+05  1.51074e+03  0.00000e+00 -4.67153e+04 -2.35984e+03 -4.90752e+04  6.23019e-01  1.00000e+00  3.27907e+01  0.00000e+00  1.60439e+01 
 6.87356e-03  5.14086e-03  8.28595e-21  3.47944e+00  4.22565e-04  3.60194e+02  3.60106e+02  7.13393e+00  7.19864e+00  6.24843e-01 -3.30872e+01  8.22656e+01  5.97654e+05 -6.47280e+05  1.53960e+03  0.00000e+00 -4.80862e+04 -2.43481e+03 -5.05210e+04  6.24853e-01  1.00000e+00  3.30704e+01  0.00000e+00  1.74368e+01 
 7.05370e-03  5.37934e-03 -1.59677e-20  3.47944e+00  4.11412e-04  3.60192e+02  3.60107e+02  7.07626e+00  7.13819e+00  6.26723e-01 -3.33862e+01  8.44965e+01  6.40488e+05 -6.91838e+05  1.56961e+03  0.00000e+00 -4.97804e+04 -2.51582e+03 -5.22963e+04  6.26732e-01  1.00000e+00  3.33687e+01  0.00000e+00  1.89922e+01 
 7.23722e-03  5.61783e-03  0.00000e+00  3.47944e+00  4.00110e-04  3.60190e+02  3.60107e+02  7.01497e+00  7.07410e+00  6.28715e-01 -3.37075e+01  8.68841e+01  6.88115e+05 -7.41540e+05  1.60108e+03  0.00000e+00 -5.18240e+04 -2.60348e+03 -5.44275e+04  6.28723e-01  1.00000e+00  3.36892e+01  0.00000e+00  2.07477e+01 
 7.42387e-03  5.85632e-03  0.00000e+00  3.47944e+00  3.88659e-04  3.60188e+02  3.60108e+02  6.94788e+00  7.00419e+00  6.30725e-01 -3.40778e+01  8.94450e+01  7.41235e+05 -7.97189e+05  1.63370e+03  0.00000e+00 -5.43201e+04 -2.70098e+03 -5.70211e+04  6.30732e-01  1.00000e+00  3.40587e+01  0.00000e+00  2.27191e+01 
 7.61342e-03  6.09482e-03  0.00000e+00  3.47944e+00  3.77026e-04  3.60187e+02  3.60108e+02  6.87752e+00  6.93100e+00  6.32861e-01 -3.45073e+01  9.22057e+01  8.00973e+05 -8.59925e+05  1.66828e+03  0.00000e+00 -5.72835e+04 -2.80988e+03 -6.00934e+04  6.32867e-01  1.00000e+00  3.44875e+01  0.00000e+00  2.49721e+01 
 7.80566e-03  6.33332e-03  0.00000e+00  3.47944e+00  3.65197e-04  3.60185e+02  3.60109e+02  6.79864e+00  6.84924e+00  6.34980e-01 -3.50567e+01  9.51932e+01  8.68440e+05 -9.31096e+05  1.70386e+03  0.00000e+00 -6.09527e+04 -2.93724e+03 -6.38899e+04  6.34985e-01  1.00000e+00  3.50360e+01  0.00000e+00  2.75256e+01 
 8.00039e-03  6.57182e-03  0.00000e+00  3.47944e+00  3.53097e-04  3.60183e+02  3.60109e+02  6.71832e+00  6.76608e+00  6.37232e-01 -3.57493e+01  9.84566e+01  9.45764e+05 -1.01272e+06  1.74270e+03  0.00000e+00 -6.52088e+04 -3.08696e+03 -6.82958e+04  6.37237e-01  1.00000e+00  3.57277e+01  0.00000e+00  3.05007e+01 
 8.19744e-03  6.81033e-03  1.31016e-20  3.47944e+00  3.40711e-04  3.60182e+02  3.60110e+02  6.62330e+00  6.66810e+00  6.39418e-01 -3.67294e+01  1.02037e+02  1.03470e+06 -1.10715e+06  1.78177e+03  0.00000e+00 -7.06672e+04 -3.27567e+03 -7.39429e+04  6.39422e-01  1.00000e+00  3.67068e+01  0.00000e+00  3.39177e+01 
 8.39664e-03  7.04884e-03  0.00000e+00  3.47944e+00  3.27880e-04  3.60181e+02  3.60111e+02  6.53258e+00  6.57451e+00  6.41800e-01 -3.80532e+01  1.06032e+02  1.13956e+06 -1.21844e+06  1.82729e+03  0.00000e+00 -7.70508e+04 -3.51350e+03 -8.05643e+04  6.41803e-01  1.00000e+00  3.80294e+01  0.00000e+00  3.80233e+01 
 8.59784e-03  7.28736e-03  0.00000e+00  3.47944e+00  3.14618e-04  3.60180e+02  3.60112e+02  6.41349e+00  6.45232e+00  6.44102e-01 -4.00920e+01  1.10503e+02  1.26321e+06 -1.35104e+06  1.87072e+03  0.00000e+00 -8.59597e+04 -3.84408e+03 -8.98038e+04  6.44104e-01  1.00000e+00  4.00670e+01  0.00000e+00  4.28351e+01 
 8.80092e-03  7.52587e-03  0.00000e+00  3.47944e+00  3.00609e-04  3.60180e+02  3.60112e+02  6.31240e+00  6.34834e+00  6.46778e-01 -4.30271e+01  1.15654e+02  1.41514e+06 -1.51400e+06  1.92813e+03  0.00000e+00 -9.69390e+04 -4.30003e+03 -1.01239e+05  6.46780e-01  1.00000e+00  4.30007e+01  0.00000e+00  4.88983e+01 
 9.00573e-03  7.76439e-03 -1.17014e-20  3.47944e+00  2.85935e-04  3.60181e+02  3.60113e+02  6.15503e+00  6.18764e+00  6.49341e-01 -4.79029e+01  1.21592e+02  1.60132e+06 -1.71681e+06  1.97737e+03  0.00000e+00 -1.13512e+05 -5.01342e+03 -1.18525e+05  6.49342e-01  1.00000e+00  4.78748e+01  0.00000e+00  5.62400e+01 
 9.21216e-03  8.00291e-03  0.00000e+00  3.47944e+00  2.69956e-04  3.60183e+02  3.60114e+02  6.04171e+00  6.07145e+00  6.52469e-01 -5.56073e+01  1.28791e+02  1.84601e+06 -1.98300e+06  2.05704e+03  0.00000e+00 -1.34932e+05 -6.13509e+03 -1.41067e+05  6.52472e-01  1.00000e+00  5.55774e+01  0.00000e+00  6.61768e+01 
 9.42012e-03  8.24144e-03  0.00000e+00  3.47944e+00  2.52860e-04  3.60188e+02  3.60115e+02  5.82185e+00  5.84790e+00  6.55441e-01 -6.96894e+01  1.37502e+02  2.16664e+06 -2.33864e+06  2.11579e+03  0.00000e+00 -1.69891e+05 -8.17226e+03 -1.78063e+05  6.55443e-01  1.00000e+00  6.96574e+01  0.00000e+00  7.89736e+01 
 9.62949e-03  8.47996e-03  0.00000e+00  3.47944e+00  2.33426e-04  3.60197e+02  3.60116e+02  5.68512e+00  5.70844e+00  6.59164e-01 -9.59095e+01  1.48952e+02  2.63820e+06 -2.85848e+06  2.23702e+03  0.00000e+00 -2.18039e+05 -1.21161e+04 -2.30155e+05  6.59166e-01  1.00000e+00  9.58747e+01  0.00000e+00  9.84168e+01 
 9.84019e-03  8.71849e-03  0.00000e+00  3.47944e+00  2.11864e-04  3.60217e+02  3.60118e+02  5.35686e+00  5.37625e+00  6.62735e-01 -1.53383e+02  1.64117e+02  3.34372e+06 -3.65037e+06  2.32025e+03  0.00000e+00 -3.04331e+05 -2.12371e+04 -3.25568e+05  6.62733e-01  1.00000e+00  1.53345e+02  0.00000e+00  1.27091e+02 
 1.00521e-02  8.95702e-03  0.00000e+00  3.47944e+00  1.86029e-04  3.60261e+02  3.60119e+02  5.14131e+00  5.15870e+00  6.67535e-01 -3.01707e+02  1.86912e+02  4.62067e+06 -5.04833e+06  2.52413e+03  0.00000e+00 -4.25135e+05 -4.72410e+04 -4.72376e+05  6.67520e-01  1.00000e+00  3.01664e+02  0.00000e+00  1.81741e+02 
 1.02653e-02  9.19555e-03  0.00000e+00  3.47944e+00  1.55913e-04  3.60389e+02  3.60121e+02  4.56860e+00  4.58239e+00  6.71716e-01 -8.24291e+02  2.23025e+02  7.26168e+06 -7.77857e+06  2.66089e+03  0.00000e+00 -5.14224e+05 -1.53068e+05 -6.67292e+05  6.71674e-01  1.00000e+00  8.24242e+02  0.00000e+00  3.00070e+02 
 1.04795e-02  9.43408e-03  0.00000e+00  3.47944e+00  1.23999e-04  3.60955e+02  3.60124e+02  3.91346e+00  3.92284e+00  6.80146e-01 -8.12132e+03  2.80437e+02  1.43557e+07 -1.24035e+07  2.92639e+03  1.02486e+06  2.97998e+06 -3.03648e+06 -5.65002e+04  6.80091e-01  1.00000e+00  8.12126e+03  4.23211e+03  7.59691e+02 
