# Code_Saturne plot output (1D profile)
#
# Iteration output: 2613
# Time output:      2.30051e+01
#
#COLUMN_TITLES: Distance | X | Y | Z | diameter_Field2 | temp_Field1 | temp_Field2 | Velocity_Field1[Z] | Velocity_Field2[Z] | vol_f_Field2 | mass_trans_Field1 | Xd_Field2 | BK | COAL | COMP | NUCL | W1 | MT | SMBR | ALPBB | CONDNUM | GAMA | GAMANUC | epsilon_Field1
 4.56474e-03  1.39645e-04  0.00000e+00  3.47944e+00  1.73249e-04  3.59842e+02  3.60055e+02  4.92772e+00  4.96383e+00  1.19852e-01  4.31657e+01  2.01119e+02  1.46806e+05 -8.24833e+05  1.34962e+03  0.00000e+00 -6.76678e+05  2.58342e+04 -6.50844e+05  1.19853e-01  1.00000e+00 -4.31591e+01  0.00000e+00  6.21588e-01 
 4.57812e-03  3.76525e-04  4.25872e-21  3.47944e+00  1.99884e-04  3.59843e+02  3.60055e+02  4.92684e+00  4.96973e+00  1.20879e-01  3.58831e+01  1.74319e+02  2.28566e+05 -6.52068e+05  1.17091e+03  0.00000e+00 -4.22331e+05  1.84561e+04 -4.03875e+05  1.20879e-01  1.00000e+00 -3.58776e+01  0.00000e+00  6.29659e-01 
 4.60371e-03  6.13858e-04  0.00000e+00  3.47944e+00  2.16057e-04  3.59845e+02  3.60055e+02  4.92512e+00  4.97206e+00  1.22878e-01  3.26910e+01  1.61270e+02  2.76375e+05 -5.83537e+05  1.08387e+03  0.00000e+00 -3.06079e+05  1.53025e+04 -2.90776e+05  1.22878e-01  1.00000e+00 -3.26858e+01  0.00000e+00  6.45344e-01 
 4.64138e-03  8.51483e-04  0.00000e+00  3.47944e+00  2.25714e-04  3.59848e+02  3.60054e+02  4.92267e+00  4.97189e+00  1.25773e-01  3.12524e+01  1.54371e+02  3.10079e+05 -5.59689e+05  1.03759e+03  0.00000e+00 -2.48573e+05  1.36809e+04 -2.34892e+05  1.25774e-01  1.00000e+00 -3.12474e+01  0.00000e+00  6.68981e-01 
 4.69084e-03  1.08931e-03  0.00000e+00  3.47944e+00  2.31983e-04  3.59852e+02  3.60054e+02  4.91938e+00  4.96991e+00  1.29631e-01  3.06074e+01  1.50199e+02  3.40531e+05 -5.57871e+05  1.00930e+03  0.00000e+00 -2.16330e+05  1.26485e+04 -2.03682e+05  1.29631e-01  1.00000e+00 -3.06024e+01  0.00000e+00  7.01016e-01 
 4.75174e-03  1.32727e-03  1.05001e-20  3.47944e+00  2.36488e-04  3.59858e+02  3.60054e+02  4.91520e+00  4.96649e+00  1.34436e-01  3.03472e+01  1.47338e+02  3.72097e+05 -5.69233e+05  9.89584e+02  0.00000e+00 -1.96146e+05  1.18623e+04 -1.84284e+05  1.34437e-01  1.00000e+00 -3.03421e+01  0.00000e+00  7.42163e-01 
 4.82366e-03  1.56534e-03  0.00000e+00  3.47944e+00  2.40128e-04  3.59864e+02  3.60054e+02  4.91005e+00  4.96181e+00  1.40208e-01  3.02681e+01  1.45104e+02  4.06619e+05 -5.89800e+05  9.73888e+02  0.00000e+00 -1.82206e+05  1.11723e+04 -1.71034e+05  1.40209e-01  1.00000e+00 -3.02629e+01  0.00000e+00  7.93301e-01 
 4.90611e-03  1.80349e-03  8.81027e-21  3.47944e+00  2.43427e-04  3.59871e+02  3.60054e+02  4.90385e+00  4.95590e+00  1.46932e-01  3.02430e+01  1.43138e+02  4.44822e+05 -6.17377e+05  9.59810e+02  0.00000e+00 -1.71595e+05  1.05078e+04 -1.61087e+05  1.46933e-01  1.00000e+00 -3.02376e+01  0.00000e+00  8.55528e-01 
 4.99859e-03  2.04170e-03  0.00000e+00  3.47944e+00  2.46714e-04  3.59880e+02  3.60054e+02  4.89648e+00  4.94876e+00  1.54589e-01  3.01828e+01  1.41231e+02  4.86785e+05 -6.50542e+05  9.45956e+02  0.00000e+00 -1.62812e+05  9.83463e+03 -1.52977e+05  1.54590e-01  1.00000e+00 -3.01772e+01  0.00000e+00  9.30122e-01 
 5.10055e-03  2.27996e-03  7.58893e-21  3.47944e+00  2.50212e-04  3.59889e+02  3.60054e+02  4.88780e+00  4.94030e+00  1.63136e-01  3.00164e+01  1.39256e+02  5.32146e+05 -6.88093e+05  9.31466e+02  0.00000e+00 -1.55015e+05  9.13836e+03 -1.45876e+05  1.63136e-01  1.00000e+00 -3.00106e+01  0.00000e+00  1.01856e+00 
 5.21143e-03  2.51826e-03  7.09702e-21  3.47944e+00  2.54084e-04  3.59898e+02  3.60054e+02  4.87766e+00  4.93039e+00  1.72512e-01  2.96868e+01  1.37134e+02  5.80182e+05 -7.28858e+05  9.15798e+02  0.00000e+00 -1.47761e+05  8.41647e+03 -1.39345e+05  1.72512e-01  1.00000e+00 -2.96808e+01  0.00000e+00  1.12249e+00 
 5.33068e-03  2.75659e-03  1.33300e-20  3.47944e+00  2.58445e-04  3.59908e+02  3.60054e+02  4.86586e+00  4.91888e+00  1.82628e-01  2.91489e+01  1.34820e+02  6.29884e+05 -7.71572e+05  8.98635e+02  0.00000e+00 -1.40789e+05  7.67447e+03 -1.33115e+05  1.82627e-01  1.00000e+00 -2.91427e+01  0.00000e+00  1.24370e+00 
 5.45775e-03  2.99495e-03  1.25651e-20  3.47944e+00  2.63375e-04  3.59919e+02  3.60054e+02  4.85222e+00  4.90558e+00  1.93378e-01  2.83736e+01  1.32297e+02  6.80034e+05 -8.14923e+05  8.79837e+02  0.00000e+00 -1.34009e+05  6.92291e+03 -1.27086e+05  1.93377e-01  1.00000e+00 -2.83671e+01  0.00000e+00  1.38410e+00 
 5.59212e-03  3.23333e-03  0.00000e+00  3.47944e+00  2.68912e-04  3.59929e+02  3.60054e+02  4.83653e+00  4.89030e+00  2.04628e-01  2.73471e+01  1.29573e+02  7.29350e+05 -8.57556e+05  8.59472e+02  0.00000e+00 -1.27347e+05  6.17577e+03 -1.21171e+05  2.04625e-01  1.00000e+00 -2.73405e+01  0.00000e+00  1.54567e+00 
 5.73326e-03  3.47172e-03  0.00000e+00  3.47944e+00  2.75055e-04  3.59940e+02  3.60054e+02  4.81860e+00  4.87284e+00  2.16243e-01  2.60752e+01  1.26679e+02  7.76577e+05 -8.98275e+05  8.37724e+02  0.00000e+00 -1.20861e+05  5.44772e+03 -1.15413e+05  2.16238e-01  1.00000e+00 -2.60683e+01  0.00000e+00  1.73039e+00 
 5.88069e-03  3.71014e-03 -5.35987e-21  3.47944e+00  2.81751e-04  3.59951e+02  3.60054e+02  4.79826e+00  4.85302e+00  2.28057e-01  2.45782e+01  1.23669e+02  8.20724e+05 -9.36049e+05  8.14912e+02  0.00000e+00 -1.14510e+05  4.75316e+03 -1.09757e+05  2.28051e-01  1.00000e+00 -2.45711e+01  0.00000e+00  1.94026e+00 
 6.03395e-03  3.94857e-03  5.10973e-21  3.47944e+00  2.88907e-04  3.59961e+02  3.60054e+02  4.77536e+00  4.83069e+00  2.39928e-01  2.28925e+01  1.20606e+02  8.61073e+05 -9.70304e+05  7.91556e+02  0.00000e+00 -1.08440e+05  4.10356e+03 -1.04336e+05  2.39935e-01  1.00000e+00 -2.28853e+01  0.00000e+00  2.17720e+00 
 6.19261e-03  4.18701e-03  0.00000e+00  3.47944e+00  2.96368e-04  3.59972e+02  3.60054e+02  4.74982e+00  4.80573e+00  2.51732e-01  2.10611e+01  1.17570e+02  8.97448e+05 -1.00083e+06  7.68088e+02  0.00000e+00 -1.02616e+05  3.50761e+03 -9.91085e+04  2.51736e-01  1.00000e+00 -2.10538e+01  0.00000e+00  2.44326e+00 
 6.35626e-03  4.42546e-03  0.00000e+00  3.47944e+00  3.03944e-04  3.59982e+02  3.60054e+02  4.72157e+00  4.77804e+00  2.63323e-01  1.91298e+01  1.14639e+02  9.30085e+05 -1.02788e+06  7.45107e+02  0.00000e+00 -9.70461e+04  2.96971e+03 -9.40764e+04  2.63325e-01  1.00000e+00 -1.91224e+01  0.00000e+00  2.74044e+00 
 6.52453e-03  4.66392e-03 -8.96437e-21  3.47944e+00  3.11400e-04  3.59993e+02  3.60055e+02  4.69062e+00  4.74760e+00  2.74637e-01  1.71448e+01  1.11895e+02  9.59726e+05 -1.05237e+06  7.23063e+02  0.00000e+00 -9.19198e+04  2.49072e+03 -8.94291e+04  2.74637e-01  1.00000e+00 -1.71373e+01  0.00000e+00  3.07137e+00 
 6.69707e-03  4.90238e-03  1.72236e-20  3.47944e+00  3.18491e-04  3.60002e+02  3.60055e+02  4.65692e+00  4.71433e+00  2.85571e-01  1.51400e+01  1.09404e+02  9.87456e+05 -1.07530e+06  7.02483e+02  0.00000e+00 -8.71398e+04  2.06805e+03 -8.50717e+04  2.85570e-01  1.00000e+00 -1.51324e+01  0.00000e+00  3.43875e+00 
 6.87356e-03  5.14086e-03  8.28595e-21  3.47944e+00  3.24952e-04  3.60012e+02  3.60055e+02  4.62049e+00  4.67816e+00  2.96113e-01  1.31440e+01  1.07229e+02  1.01472e+06 -1.09830e+06  6.83662e+02  0.00000e+00 -8.29017e+04  1.69693e+03 -8.12048e+04  2.96111e-01  1.00000e+00 -1.31363e+01  0.00000e+00  3.84685e+00 
 7.05370e-03  5.37934e-03 -1.59677e-20  3.47944e+00  3.30565e-04  3.60021e+02  3.60055e+02  4.58124e+00  4.63901e+00  3.06282e-01  1.11699e+01  1.05408e+02  1.04280e+06 -1.12294e+06  6.66845e+02  0.00000e+00 -7.94722e+04  1.37037e+03 -7.81018e+04  3.06280e-01  1.00000e+00 -1.11622e+01  0.00000e+00  4.29997e+00 
 7.23722e-03  5.61783e-03  0.00000e+00  3.47944e+00  3.35086e-04  3.60030e+02  3.60055e+02  4.53910e+00  4.59677e+00  3.15976e-01  9.22055e+00  1.03987e+02  1.07373e+06 -1.15081e+06  6.52248e+02  0.00000e+00 -7.64265e+04  1.08154e+03 -7.53450e+04  3.15976e-01  1.00000e+00 -9.21270e+00  0.00000e+00  4.80576e+00 
 7.42387e-03  5.85632e-03  0.00000e+00  3.47944e+00  3.38395e-04  3.60039e+02  3.60055e+02  4.49385e+00  4.55116e+00  3.25333e-01  7.28871e+00  1.02970e+02  1.10855e+06 -1.18364e+06  6.39866e+02  0.00000e+00 -7.44535e+04  8.22037e+02 -7.36315e+04  3.25332e-01  1.00000e+00 -7.28072e+00  0.00000e+00  5.37108e+00 
 7.61342e-03  6.09482e-03  0.00000e+00  3.47944e+00  3.40302e-04  3.60048e+02  3.60055e+02  4.44536e+00  4.50206e+00  3.34228e-01  5.35905e+00  1.02393e+02  1.14968e+06 -1.22323e+06  6.29766e+02  0.00000e+00 -7.29163e+04  5.84775e+02 -7.23315e+04  3.34228e-01  1.00000e+00 -5.35091e+00  0.00000e+00  6.00965e+00 
 7.80566e-03  6.33332e-03  0.00000e+00  3.47944e+00  3.40805e-04  3.60056e+02  3.60055e+02  4.39307e+00  4.44887e+00  3.42877e-01  3.40681e+00  1.02243e+02  1.19784e+06 -1.27136e+06  6.21791e+02  0.00000e+00 -7.28914e+04  3.61501e+02 -7.25299e+04  3.42878e-01  1.00000e+00 -3.39847e+00  0.00000e+00  6.73212e+00 
 8.00039e-03  6.57182e-03  0.00000e+00  3.47944e+00  3.39734e-04  3.60064e+02  3.60056e+02  4.33702e+00  4.39165e+00  3.51090e-01  1.40133e+00  1.02566e+02  1.25648e+06 -1.33040e+06  6.16012e+02  0.00000e+00 -7.33068e+04  1.45141e+02 -7.31617e+04  3.51091e-01  1.00000e+00 -1.39276e+00  0.00000e+00  7.56394e+00 
 8.19744e-03  6.81033e-03  1.31016e-20  3.47944e+00  3.37187e-04  3.60071e+02  3.60056e+02  4.27586e+00  4.32901e+00  3.59163e-01 -1.64945e+00  1.03341e+02  1.32615e+06 -1.40261e+06  6.12176e+02  0.00000e+00 -7.58569e+04 -1.71031e+02 -7.60279e+04  3.59166e-01  1.00000e+00  1.66635e+00  0.00000e+00  8.52197e+00 
 8.39664e-03  7.04884e-03  0.00000e+00  3.47944e+00  3.32953e-04  3.60079e+02  3.60056e+02  4.21044e+00  4.26184e+00  3.66836e-01 -6.73402e+00  1.04656e+02  1.41261e+06 -1.49213e+06  6.10485e+02  0.00000e+00 -7.89027e+04 -6.87090e+02 -7.95898e+04  3.66839e-01  1.00000e+00  6.75142e+00  0.00000e+00  9.65671e+00 
 8.59784e-03  7.28736e-03  0.00000e+00  3.47944e+00  3.27163e-04  3.60087e+02  3.60056e+02  4.13712e+00  4.18645e+00  3.74479e-01 -1.24800e+01  1.06508e+02  1.51710e+06 -1.60300e+06  6.10671e+02  0.00000e+00 -8.52923e+04 -1.26802e+03 -8.65603e+04  3.74482e-01  1.00000e+00  1.24980e+01  0.00000e+00  1.09973e+01 
 8.80092e-03  7.52587e-03  0.00000e+00  3.47944e+00  3.19442e-04  3.60095e+02  3.60057e+02  4.05974e+00  4.10674e+00  3.81791e-01 -1.93374e+01  1.09084e+02  1.65104e+06 -1.74461e+06  6.13346e+02  0.00000e+00 -9.29558e+04 -1.97278e+03 -9.49286e+04  3.81793e-01  1.00000e+00  1.93560e+01  0.00000e+00  1.26550e+01 
 9.00573e-03  7.76439e-03 -1.17014e-20  3.47944e+00  3.09948e-04  3.60105e+02  3.60057e+02  3.96793e+00  4.01225e+00  3.89183e-01 -2.80443e+01  1.12426e+02  1.81831e+06 -1.92568e+06  6.18020e+02  0.00000e+00 -1.06756e+05 -2.89192e+03 -1.09648e+05  3.89187e-01  1.00000e+00  2.80637e+01  0.00000e+00  1.46908e+01 
 9.21216e-03  8.00291e-03  0.00000e+00  3.47944e+00  2.98053e-04  3.60116e+02  3.60058e+02  3.87430e+00  3.91565e+00  3.96367e-01 -3.99337e+01  1.16913e+02  2.04469e+06 -2.16935e+06  6.26360e+02  0.00000e+00 -1.24033e+05 -4.20394e+03 -1.28237e+05  3.96370e-01  1.00000e+00  3.99541e+01  0.00000e+00  1.73854e+01 
 9.42012e-03  8.24144e-03  0.00000e+00  3.47944e+00  2.83891e-04  3.60131e+02  3.60058e+02  3.75112e+00  3.78916e+00  4.03750e-01 -5.74788e+01  1.22747e+02  2.34547e+06 -2.50062e+06  6.36931e+02  0.00000e+00 -1.54515e+05 -6.23589e+03 -1.60751e+05  4.03753e-01  1.00000e+00  5.75005e+01  0.00000e+00  2.09186e+01 
 9.62949e-03  8.47996e-03  0.00000e+00  3.47944e+00  2.66327e-04  3.60152e+02  3.60058e+02  3.63118e+00  3.66560e+00  4.11147e-01 -8.61868e+01  1.30843e+02  2.79456e+06 -2.99078e+06  6.54608e+02  0.00000e+00 -1.95570e+05 -9.78681e+03 -2.05356e+05  4.11148e-01  1.00000e+00  8.62099e+01  0.00000e+00  2.61692e+01 
 9.84019e-03  8.71849e-03  0.00000e+00  3.47944e+00  2.45300e-04  3.60185e+02  3.60059e+02  3.44775e+00  3.47820e+00  4.18800e-01 -1.38849e+02  1.42060e+02  3.47296e+06 -3.74353e+06  6.74984e+02  0.00000e+00 -2.69896e+05 -1.68042e+04 -2.86700e+05  4.18802e-01  1.00000e+00  1.38874e+02  0.00000e+00  3.40425e+01 
 1.00521e-02  8.95702e-03  0.00000e+00  3.47944e+00  2.18620e-04  3.60245e+02  3.60060e+02  3.26519e+00  3.29156e+00  4.26626e-01 -2.55464e+02  1.59399e+02  4.71225e+06 -5.08373e+06  7.10988e+02  0.00000e+00 -3.70772e+05 -3.40525e+04 -4.04824e+05  4.26626e-01  1.00000e+00  2.55492e+02  0.00000e+00  4.87916e+01 
 1.02653e-02  9.19555e-03  0.00000e+00  3.47944e+00  1.86593e-04  3.60381e+02  3.60061e+02  2.92854e+00  2.94908e+00  4.35286e-01 -5.87043e+02  1.86761e+02  7.21951e+06 -7.68883e+06  7.42809e+02  0.00000e+00 -4.68582e+05 -8.98534e+04 -5.58436e+05  4.35293e-01  1.00000e+00  5.87074e+02  0.00000e+00  8.08067e+01 
 1.04795e-02  9.43408e-03  0.00000e+00  3.47944e+00  1.51235e-04  3.60849e+02  3.60062e+02  2.45037e+00  2.46178e+00  4.45629e-01 -5.45830e+03  2.30430e+02  1.41322e+07 -1.28780e+07  7.93488e+02  8.96462e+05  2.15149e+06 -2.17410e+06 -2.26119e+04  4.45641e-01  1.00000e+00  5.45833e+03  3.38624e+03  2.04268e+02 
