# Code_Saturne plot output (1D profile)
#
# Iteration output: 4920
# Time output:      2.30006e+01
#
#COLUMN_TITLES: Distance | X | Y | Z | diameter_Field2 | temp_Field1 | temp_Field2 | Velocity_Field1[Z] | Velocity_Field2[Z] | vol_f_Field2 | mass_trans_Field1 | Xd_Field2 | BK | COAL | COMP | NUCL | W1 | MT | SMBR | ALPBB | CONDNUM | GAMA | GAMANUC | epsilon_Field1
 4.56474e-03  1.39645e-04  0.00000e+00  3.47944e+00  5.70993e-04  3.59887e+02  3.60056e+02  5.22298e+00  5.31937e+00  2.42262e-01  1.47000e+01  6.10138e+01  1.41389e+05 -3.44893e+05  4.85705e+02  0.00000e+00 -2.03018e+05  1.90795e+03 -2.01110e+05  2.42261e-01  1.00000e+00 -1.47018e+01  0.00000e+00  1.66018e+00 
 4.57812e-03  3.76525e-04  4.25872e-21  3.47944e+00  6.02531e-04  3.59887e+02  3.60056e+02  5.22184e+00  5.31832e+00  2.43020e-01  1.35405e+01  5.78202e+01  1.32488e+05 -3.08572e+05  4.60120e+02  0.00000e+00 -1.75623e+05  1.66028e+03 -1.73963e+05  2.43019e-01  1.00000e+00 -1.35422e+01  0.00000e+00  1.67496e+00 
 4.60371e-03  6.13858e-04  0.00000e+00  3.47944e+00  6.31655e-04  3.59889e+02  3.60056e+02  5.21901e+00  5.31526e+00  2.44205e-01  1.25758e+01  5.51542e+01  1.25428e+05 -2.80086e+05  4.38735e+02  0.00000e+00 -1.54220e+05  1.46375e+03 -1.52756e+05  2.44204e-01  1.00000e+00 -1.25774e+01  0.00000e+00  1.70404e+00 
 4.64138e-03  8.51483e-04  0.00000e+00  3.47944e+00  6.62130e-04  3.59891e+02  3.60056e+02  5.21469e+00  5.31054e+00  2.45967e-01  1.16654e+01  5.26157e+01  1.18941e+05 -2.54362e+05  4.18302e+02  0.00000e+00 -1.35003e+05  1.28603e+03 -1.33717e+05  2.45966e-01  1.00000e+00 -1.16669e+01  0.00000e+00  1.74785e+00 
 4.69084e-03  1.08931e-03  0.00000e+00  3.47944e+00  6.94776e-04  3.59894e+02  3.60056e+02  5.20885e+00  5.30417e+00  2.48262e-01  1.07849e+01  5.01435e+01  1.12783e+05 -2.30290e+05  3.98344e+02  0.00000e+00 -1.17109e+05  1.12263e+03 -1.15987e+05  2.48261e-01  1.00000e+00 -1.07863e+01  0.00000e+00  1.80698e+00 
 4.75174e-03  1.32727e-03  1.05001e-20  3.47944e+00  7.28873e-04  3.59898e+02  3.60056e+02  5.20146e+00  5.29612e+00  2.51103e-01  9.95279e+00  4.77977e+01  1.07077e+05 -2.08231e+05  3.79342e+02  0.00000e+00 -1.00774e+05  9.76374e+02 -9.97979e+04  2.51103e-01  1.00000e+00 -9.95412e+00  0.00000e+00  1.88220e+00 
 4.82366e-03  1.56534e-03  0.00000e+00  3.47944e+00  7.63035e-04  3.59903e+02  3.60056e+02  5.19250e+00  5.28637e+00  2.54457e-01  9.18907e+00  4.56577e+01  1.02036e+05 -1.88703e+05  3.61934e+02  0.00000e+00 -8.63043e+04  8.49743e+02 -8.54546e+04  2.54458e-01  1.00000e+00 -9.19032e+00  0.00000e+00  1.97440e+00 
 4.90611e-03  1.80349e-03  8.81027e-21  3.47944e+00  7.95607e-04  3.59908e+02  3.60056e+02  5.18189e+00  5.27483e+00  2.58220e-01  8.50448e+00  4.37886e+01  9.78612e+04 -1.72045e+05  3.46634e+02  0.00000e+00 -7.38367e+04  7.43254e+02 -7.30934e+04  2.58221e-01  1.00000e+00 -8.50568e+00  0.00000e+00  2.08468e+00 
 4.99859e-03  2.04170e-03  0.00000e+00  3.47944e+00  8.25057e-04  3.59914e+02  3.60056e+02  5.16958e+00  5.26145e+00  2.62321e-01  7.90035e+00  4.22256e+01  9.46688e+04 -1.58367e+05  3.33711e+02  0.00000e+00 -6.33644e+04  6.55404e+02 -6.27090e+04  2.62324e-01  1.00000e+00 -7.90151e+00  0.00000e+00  2.21422e+00 
 5.10055e-03  2.27996e-03  7.58893e-21  3.47944e+00  8.50173e-04  3.59921e+02  3.60056e+02  5.15548e+00  5.24616e+00  2.66697e-01  7.36972e+00  4.09782e+01  9.25078e+04 -1.47577e+05  3.23229e+02  0.00000e+00 -5.47464e+04  5.83594e+02 -5.41629e+04  2.66700e-01  1.00000e+00 -7.37085e+00  0.00000e+00  2.36439e+00 
 5.21143e-03  2.51826e-03  7.09702e-21  3.47944e+00  8.70247e-04  3.59929e+02  3.60056e+02  5.13952e+00  5.22892e+00  2.71323e-01  6.89965e+00  4.00330e+01  9.13541e+04 -1.39438e+05  3.15073e+02  0.00000e+00 -4.77691e+04  5.24672e+02 -4.72444e+04  2.71325e-01  1.00000e+00 -6.90076e+00  0.00000e+00  2.53662e+00 
 5.33068e-03  2.75659e-03  1.33300e-20  3.47944e+00  8.85009e-04  3.59938e+02  3.60056e+02  5.12160e+00  5.20961e+00  2.76137e-01  6.47354e+00  3.93653e+01  9.11631e+04 -1.33639e+05  3.09036e+02  0.00000e+00 -4.21671e+04  4.75627e+02 -4.16915e+04  2.76138e-01  1.00000e+00 -6.47465e+00  0.00000e+00  2.73260e+00 
 5.45775e-03  2.99495e-03  1.25651e-20  3.47944e+00  8.94612e-04  3.59947e+02  3.60056e+02  5.10155e+00  5.18825e+00  2.81149e-01  6.07766e+00  3.89428e+01  9.18527e+04 -1.29880e+05  3.04878e+02  0.00000e+00 -3.77228e+04  4.33878e+02 -3.72890e+04  2.81150e-01  1.00000e+00 -6.07878e+00  0.00000e+00  2.95380e+00 
 5.59212e-03  3.23333e-03  0.00000e+00  3.47944e+00  8.99439e-04  3.59957e+02  3.60056e+02  5.07935e+00  5.16504e+00  2.86270e-01  5.69613e+00  3.87339e+01  9.33624e+04 -1.27848e+05  3.02268e+02  0.00000e+00 -3.41831e+04  3.97230e+02 -3.37859e+04  2.86272e-01  1.00000e+00 -5.69727e+00  0.00000e+00  3.20211e+00 
 5.73326e-03  3.47172e-03  0.00000e+00  3.47944e+00  9.00056e-04  3.59968e+02  3.60056e+02  5.05503e+00  5.13989e+00  2.91543e-01  5.30499e+00  3.87074e+01  9.56141e+04 -1.27315e+05  3.00972e+02  0.00000e+00 -3.13995e+04  3.63022e+02 -3.10364e+04  2.91545e-01  1.00000e+00 -5.30616e+00  0.00000e+00  3.47948e+00 
 5.88069e-03  3.71014e-03 -5.35987e-21  3.47944e+00  8.97028e-04  3.59979e+02  3.60056e+02  5.02853e+00  5.11263e+00  2.96890e-01  4.88809e+00  3.88382e+01  9.85722e+04 -1.28060e+05  3.00768e+02  0.00000e+00 -2.91870e+04  3.29590e+02 -2.88574e+04  2.96890e-01  1.00000e+00 -4.88929e+00  0.00000e+00  3.78872e+00 
 6.03395e-03  3.94857e-03  5.10973e-21  3.47944e+00  8.90953e-04  3.59991e+02  3.60057e+02  4.99978e+00  5.08313e+00  3.02373e-01  4.43190e+00  3.91031e+01  1.02175e+05 -1.29961e+05  3.01472e+02  0.00000e+00 -2.74845e+04  2.95426e+02 -2.71891e+04  3.02371e-01  1.00000e+00 -4.43315e+00  0.00000e+00  4.13167e+00 
 6.19261e-03  4.18701e-03  0.00000e+00  3.47944e+00  8.82304e-04  3.60004e+02  3.60057e+02  4.96873e+00  5.05130e+00  3.07862e-01  3.92173e+00  3.94865e+01  1.06433e+05 -1.32864e+05  3.02875e+02  0.00000e+00 -2.61281e+04  2.59289e+02 -2.58688e+04  3.07859e-01  1.00000e+00 -3.92302e+00  0.00000e+00  4.51251e+00 
 6.35626e-03  4.42546e-03  0.00000e+00  3.47944e+00  8.71559e-04  3.60017e+02  3.60057e+02  4.93526e+00  5.01704e+00  3.13432e-01  3.34531e+00  3.99734e+01  1.11303e+05 -1.36736e+05  3.04937e+02  0.00000e+00 -2.51283e+04  2.19942e+02 -2.49084e+04  3.13429e-01  1.00000e+00 -3.34666e+00  0.00000e+00  4.93284e+00 
 6.52453e-03  4.66392e-03 -8.96437e-21  3.47944e+00  8.59034e-04  3.60030e+02  3.60057e+02  4.89930e+00  4.98025e+00  3.18973e-01  2.68889e+00  4.05564e+01  1.16835e+05 -1.41506e+05  3.07486e+02  0.00000e+00 -2.43637e+04  1.76268e+02 -2.41874e+04  3.18973e-01  1.00000e+00 -2.69030e+00  0.00000e+00  5.39845e+00 
 6.69707e-03  4.90238e-03  1.72236e-20  3.47944e+00  8.45065e-04  3.60044e+02  3.60057e+02  4.86069e+00  4.94082e+00  3.24601e-01  1.93997e+00  4.12270e+01  1.23015e+05 -1.47212e+05  3.10546e+02  0.00000e+00 -2.38856e+04  1.27064e+02 -2.37585e+04  3.24604e-01  1.00000e+00 -1.94146e+00  0.00000e+00  5.91302e+00 
 6.87356e-03  5.14086e-03  8.28595e-21  3.47944e+00  8.29812e-04  3.60058e+02  3.60057e+02  4.81938e+00  4.89864e+00  3.30229e-01  1.08338e+00  4.19849e+01  1.29928e+05 -1.53867e+05  3.14059e+02  0.00000e+00 -2.36245e+04  7.10809e+01 -2.35534e+04  3.30230e-01  1.00000e+00 -1.08495e+00  0.00000e+00  6.48382e+00 
 7.05370e-03  5.37934e-03 -1.59677e-20  3.47944e+00  8.13507e-04  3.60073e+02  3.60057e+02  4.77506e+00  4.85347e+00  3.35969e-01  1.03008e-01  4.28266e+01  1.37597e+05 -1.61556e+05  3.17947e+02  0.00000e+00 -2.36411e+04  6.87482e+00 -2.36342e+04  3.35968e-01  1.00000e+00 -1.04660e-01  0.00000e+00  7.11763e+00 
 7.23722e-03  5.61783e-03  0.00000e+00  3.47944e+00  7.96209e-04  3.60088e+02  3.60057e+02  4.72776e+00  4.80528e+00  3.41701e-01 -2.45016e+00  4.37572e+01  1.46159e+05 -1.70348e+05  3.22237e+02  0.00000e+00 -2.38663e+04 -1.61419e+02 -2.40277e+04  3.41700e-01  1.00000e+00  2.44615e+00  0.00000e+00  7.82500e+00 
 7.42387e-03  5.85632e-03  0.00000e+00  3.47944e+00  7.78074e-04  3.60103e+02  3.60058e+02  4.67692e+00  4.75354e+00  3.47557e-01 -5.43867e+00  4.47773e+01  1.55672e+05 -1.80402e+05  3.26787e+02  0.00000e+00 -2.44030e+04 -3.60787e+02 -2.47638e+04  3.47557e-01  1.00000e+00  5.43442e+00  0.00000e+00  8.61578e+00 
 7.61342e-03  6.09482e-03  0.00000e+00  3.47944e+00  7.58980e-04  3.60120e+02  3.60058e+02  4.62274e+00  4.69840e+00  3.53392e-01 -8.89604e+00  4.59040e+01  1.66412e+05 -1.91920e+05  3.31717e+02  0.00000e+00 -2.51762e+04 -5.95165e+02 -2.57714e+04  3.53392e-01  1.00000e+00  8.89154e+00  0.00000e+00  9.50962e+00 
 7.80566e-03  6.33332e-03  0.00000e+00  3.47944e+00  7.38999e-04  3.60136e+02  3.60058e+02  4.56410e+00  4.63868e+00  3.59410e-01 -1.29292e+01  4.71455e+01  1.78491e+05 -2.05276e+05  3.36824e+02  0.00000e+00 -2.64483e+04 -8.73626e+02 -2.73219e+04  3.59411e-01  1.00000e+00  1.29244e+01  0.00000e+00  1.05207e+01 
 8.00039e-03  6.57182e-03  0.00000e+00  3.47944e+00  7.17823e-04  3.60154e+02  3.60058e+02  4.50207e+00  4.57536e+00  3.65190e-01 -1.76754e+01  4.85366e+01  1.92514e+05 -2.20770e+05  3.42269e+02  0.00000e+00 -2.79134e+04 -1.21020e+03 -2.91236e+04  3.65191e-01  1.00000e+00  1.76703e+01  0.00000e+00  1.16875e+01 
 8.19744e-03  6.81033e-03  1.31016e-20  3.47944e+00  6.95555e-04  3.60173e+02  3.60059e+02  4.43353e+00  4.50540e+00  3.71019e-01 -2.33298e+01  5.00907e+01  2.08656e+05 -2.39095e+05  3.48212e+02  0.00000e+00 -3.00910e+04 -1.62269e+03 -3.17137e+04  3.71022e-01  1.00000e+00  2.33244e+01  0.00000e+00  1.30270e+01 
 8.39664e-03  7.04884e-03  0.00000e+00  3.47944e+00  6.71807e-04  3.60193e+02  3.60059e+02  4.36193e+00  4.43228e+00  3.76607e-01 -3.01728e+01  5.18617e+01  2.27954e+05 -2.60864e+05  3.54856e+02  0.00000e+00 -3.25549e+04 -2.14069e+03 -3.46956e+04  3.76610e-01  1.00000e+00  3.01669e+01  0.00000e+00  1.46214e+01 
 8.59784e-03  7.28736e-03  0.00000e+00  3.47944e+00  6.46732e-04  3.60215e+02  3.60059e+02  4.27911e+00  4.34789e+00  3.82363e-01 -3.86130e+01  5.38730e+01  2.50748e+05 -2.87383e+05  3.62074e+02  0.00000e+00 -3.62729e+04 -2.80298e+03 -3.90759e+04  3.82367e-01  1.00000e+00  3.86067e+01  0.00000e+00  1.65002e+01 
 8.80092e-03  7.52587e-03  0.00000e+00  3.47944e+00  6.19703e-04  3.60240e+02  3.60060e+02  4.19580e+00  4.26297e+00  3.87935e-01 -4.92942e+01  5.62231e+01  2.79116e+05 -3.20005e+05  3.70476e+02  0.00000e+00 -4.05185e+04 -3.68099e+03 -4.41995e+04  3.87938e-01  1.00000e+00  4.92874e+01  0.00000e+00  1.88391e+01 
 9.00573e-03  7.76439e-03 -1.17014e-20  3.47944e+00  5.90893e-04  3.60269e+02  3.60060e+02  4.08988e+00  4.15566e+00  3.93760e-01 -6.31866e+01  5.89649e+01  3.13906e+05 -3.61568e+05  3.79422e+02  0.00000e+00 -4.72835e+04 -4.87531e+03 -5.21588e+04  3.93768e-01  1.00000e+00  6.31792e+01  0.00000e+00  2.16903e+01 
 9.21216e-03  8.00291e-03  0.00000e+00  3.47944e+00  5.59185e-04  3.60303e+02  3.60061e+02  3.99121e+00  4.05606e+00  3.99480e-01 -8.21136e+01  6.23089e+01  3.60025e+05 -4.15602e+05  3.90702e+02  0.00000e+00 -5.51862e+04 -6.59913e+03 -6.17853e+04  3.99491e-01  1.00000e+00  8.21054e+01  0.00000e+00  2.54960e+01 
 9.42012e-03  8.24144e-03  0.00000e+00  3.47944e+00  5.24836e-04  3.60345e+02  3.60061e+02  3.84746e+00  3.91202e+00  4.05501e-01 -1.08970e+02  6.63876e+01  4.20451e+05 -4.89333e+05  4.02611e+02  0.00000e+00 -6.84800e+04 -9.19227e+03 -7.76723e+04  4.05514e-01  1.00000e+00  1.08961e+02  0.00000e+00  3.04326e+01 
 9.62949e-03  8.47996e-03  0.00000e+00  3.47944e+00  4.85932e-04  3.60401e+02  3.60062e+02  3.72250e+00  3.78527e+00  4.11706e-01 -1.50059e+02  7.17034e+01  5.09025e+05 -5.93988e+05  4.20920e+02  0.00000e+00 -8.45423e+04 -1.34662e+04 -9.80084e+04  4.11717e-01  1.00000e+00  1.50049e+02  0.00000e+00  3.78268e+01 
 9.84019e-03  8.71849e-03  0.00000e+00  3.47944e+00  4.42972e-04  3.60479e+02  3.60062e+02  3.50287e+00  3.56479e+00  4.18338e-01 -2.17681e+02  7.86583e+01  6.39178e+05 -7.52102e+05  4.36582e+02  0.00000e+00 -1.12487e+05 -2.10903e+04 -1.33578e+05  4.18350e-01  1.00000e+00  2.17669e+02  0.00000e+00  4.86758e+01 
 1.00521e-02  8.95702e-03  0.00000e+00  3.47944e+00  3.92566e-04  3.60604e+02  3.60063e+02  3.32303e+00  3.38125e+00  4.25380e-01 -3.47425e+02  8.87591e+01  8.70734e+05 -1.00328e+06  4.63244e+02  0.00000e+00 -1.32086e+05 -3.73573e+04 -1.69443e+05  4.25389e-01  1.00000e+00  3.47411e+02  0.00000e+00  6.94014e+01 
 1.02653e-02  9.19555e-03  0.00000e+00  3.47944e+00  3.38392e-04  3.60842e+02  3.60064e+02  2.93192e+00  2.98185e+00  4.34106e-01 -6.40195e+02  1.02971e+02  1.30474e+06 -1.36365e+06  4.71069e+02  0.00000e+00 -5.84420e+04 -7.82535e+04 -1.36696e+05  4.34114e-01  1.00000e+00  6.40176e+02  0.00000e+00  1.15047e+02 
 1.04795e-02  9.43408e-03  0.00000e+00  3.47944e+00  2.99178e-04  3.61479e+02  3.60065e+02  2.42490e+00  2.46155e+00  4.44625e-01 -4.89619e+03  1.16470e+02  1.97537e+06 -1.45956e+06  4.51799e+02  7.65882e+05  1.28214e+06 -1.26237e+06  1.97708e+04  4.44621e-01  1.00000e+00  4.89617e+03  3.44466e+03  2.92058e+02 
