# Code_Saturne plot output (1D profile)
#
# Iteration output: 1236
# Time output:      2.30056e+01
#
#COLUMN_TITLES: Distance | X | Y | Z | diameter_Field2 | temp_Field1 | temp_Field2 | Velocity_Field1[Z] | Velocity_Field2[Z] | vol_f_Field2 | mass_trans_Field1 | Xd_Field2 | BK | COAL | COMP | NUCL | W1 | MT | SMBR | ALPBB | CONDNUM | GAMA | GAMANUC | epsilon_Field1
 4.56474e-03  1.39645e-04  0.00000e+00  3.47944e+00  1.00000e-05  3.54453e+02  3.60057e+02  3.45899e+00  3.45938e+00  0.00000e+00  1.19674e-14  3.48552e+03  0.00000e+00 -7.34416e-11  1.05751e+04  0.00000e+00  1.05751e+04  2.19323e-05 -4.57043e+07  1.66943e-19  1.66943e-13 -1.19674e-14  0.00000e+00  1.91566e-01 
 4.57812e-03  3.76525e-04  4.25872e-21  3.47944e+00  1.00000e-05  3.54459e+02  3.60057e+02  3.45853e+00  3.45892e+00  0.00000e+00  2.01712e-14  3.48552e+03  0.00000e+00 -1.27512e-10  1.05738e+04  0.00000e+00  1.05738e+04  3.69672e-05 -2.63538e+07  2.89019e-19  2.89019e-13 -2.01712e-14  0.00000e+00  1.93248e-01 
 4.60371e-03  6.13858e-04  0.00000e+00  3.47944e+00  1.00000e-05  3.54470e+02  3.60057e+02  3.45714e+00  3.45752e+00  0.00000e+00  5.02161e-14  3.48552e+03  0.00000e+00 -3.26069e-10  1.05698e+04  0.00000e+00  1.05698e+04  9.20294e-05 -1.03658e+07  7.34923e-19  7.34923e-13 -5.02160e-14  0.00000e+00  1.96573e-01 
 4.64138e-03  8.51483e-04  0.00000e+00  3.47944e+00  1.00000e-05  3.54488e+02  3.60057e+02  3.45510e+00  3.45549e+00  0.00000e+00  6.37581e-14  3.48553e+03  0.00000e+00 -4.17473e-10  1.05640e+04  0.00000e+00  1.05640e+04  1.16848e-04 -8.16626e+06  9.33167e-19  9.33167e-13 -6.37581e-14  0.00000e+00  2.01584e-01 
 4.69084e-03  1.08931e-03  0.00000e+00  3.47944e+00  1.00000e-05  3.54512e+02  3.60057e+02  3.45239e+00  3.45278e+00  0.00000e+00  7.73719e-14  3.48553e+03  0.00000e+00 -5.12195e-10  1.05562e+04  0.00000e+00  1.05562e+04  1.41798e-04 -6.72907e+06  1.13250e-18  1.13250e-12 -7.73720e-14  0.00000e+00  2.08352e-01 
 4.75174e-03  1.32727e-03  1.05001e-20  3.47944e+00  1.00000e-05  3.54542e+02  3.60058e+02  3.44897e+00  3.44936e+00  0.00000e+00  6.40403e-14  3.48553e+03  0.00000e+00 -4.29678e-10  1.05464e+04  0.00000e+00  1.05464e+04  1.17365e-04 -8.13026e+06  9.37458e-19  9.37458e-13 -6.40404e-14  0.00000e+00  2.16964e-01 
 4.82366e-03  1.56534e-03  0.00000e+00  3.47944e+00  1.00000e-05  3.54577e+02  3.60058e+02  3.44486e+00  3.44525e+00  0.00000e+00  3.17092e-14  3.48553e+03  0.00000e+00 -2.13994e-10  1.05345e+04  0.00000e+00  1.05345e+04  5.81124e-05 -1.65982e+07  4.59631e-19  4.59631e-13 -3.17091e-14  0.00000e+00  2.27528e-01 
 4.90611e-03  1.80349e-03  8.81027e-21  3.47944e+00  1.00000e-05  3.54619e+02  3.60058e+02  3.44004e+00  3.44042e+00  0.00000e+00  2.26413e-14  3.48553e+03  0.00000e+00 -1.53838e-10  1.05159e+04  0.00000e+00  1.05159e+04  4.14941e-05 -2.35118e+07  3.24588e-19  3.24588e-13 -2.26413e-14  0.00000e+00  2.40177e-01 
 4.99859e-03  2.04170e-03  0.00000e+00  3.47944e+00  1.00000e-05  3.54667e+02  3.60058e+02  3.43448e+00  3.43487e+00  1.52766e-20  1.03246e-14  3.48553e+03  0.00000e+00 -6.96786e-11  3.83130e+03  0.00000e+00  3.83130e+03  1.89218e-05 -5.29992e+07  1.44135e-19  1.44135e-13 -1.03247e-14  0.00000e+00  2.55062e-01 
 5.10055e-03  2.27996e-03  7.58893e-21  3.47944e+00  1.00000e-05  3.54721e+02  3.60058e+02  3.42813e+00  3.42852e+00  2.01123e-19  2.86042e-14  3.48553e+03  0.00000e+00 -2.04934e-10  8.18908e+03  0.00000e+00  8.18908e+03  5.24223e-05 -1.83813e+07  4.14862e-19  4.14862e-13 -2.86043e-14  0.00000e+00  2.72356e-01 
 5.21143e-03  2.51826e-03  7.09702e-21  3.47944e+00  1.00000e-05  3.54781e+02  3.60058e+02  3.42096e+00  3.42135e+00  1.35812e-18  1.05175e-13  3.48553e+03  0.00000e+00 -7.79119e-10  1.02110e+04  0.00000e+00  1.02110e+04  1.92751e-04 -4.93999e+06  1.54105e-18  1.54105e-12 -1.05175e-13  0.00000e+00  2.92248e-01 
 5.33068e-03  2.75659e-03  1.33300e-20  3.47944e+00  1.00000e-05  3.54847e+02  3.60058e+02  3.41303e+00  3.41341e+00  8.71460e-18  6.03962e-13  3.48553e+03  0.00000e+00 -4.62727e-09  9.98383e+03  0.00000e+00  9.98383e+03  1.10687e-03 -8.44136e+05  8.92975e-18  8.92975e-12 -6.03962e-13  0.00000e+00  3.14965e-01 
 5.45775e-03  2.99495e-03  1.25651e-20  3.47944e+00  1.00000e-05  3.54920e+02  3.60058e+02  3.40409e+00  3.40447e+00  5.48950e-17  4.06073e-12  3.48553e+03  0.00000e+00 -3.19167e-08  1.00223e+04  0.00000e+00  1.00223e+04  7.44201e-03 -1.13765e+05  6.00199e-17  6.00199e-11 -4.06073e-12  0.00000e+00  3.40741e-01 
 5.59212e-03  3.23333e-03  0.00000e+00  3.47944e+00  1.00000e-05  3.54999e+02  3.60058e+02  3.39424e+00  3.39462e+00  3.38877e-16  2.48023e-11  3.48554e+03  0.00000e+00 -2.01068e-07  1.00192e+04  0.00000e+00  1.00192e+04  4.54547e-02 -2.06590e+04  3.68063e-16  3.68063e-10 -2.48023e-11  0.00000e+00  3.69825e-01 
 5.73326e-03  3.47172e-03  0.00000e+00  3.47944e+00  1.00000e-05  3.55084e+02  3.60058e+02  3.38357e+00  3.38395e+00  2.05000e-15  1.48651e-10  3.48554e+03 1.75593e-276 -1.23891e-06  9.28904e+03  0.00000e+00  9.28904e+03  2.72429e-01 -3.50137e+03  2.20553e-15  2.20553e-09 -1.48651e-10  0.00000e+00  4.02551e-01 
 5.88069e-03  3.71014e-03 -5.35987e-21  3.47944e+00  1.00000e-05  3.55176e+02  3.60058e+02  3.37152e+00  3.37189e+00  1.21348e-14  8.68142e-10  3.48554e+03 2.06538e-260 -7.49167e-06  9.27996e+03  0.00000e+00  9.27996e+03  1.59103e+00 -5.97946e+02  1.29603e-14  1.29603e-08 -8.68142e-10  0.00000e+00  4.39205e-01 
 6.03395e-03  3.94857e-03  5.10973e-21  3.47944e+00  1.00000e-05  3.55274e+02  3.60058e+02  3.35879e+00  3.35916e+00  6.99903e-14  5.02021e-09  3.48554e+03 6.68730e-245 -4.45630e-05  9.26365e+03  0.00000e+00  9.26365e+03  9.20045e+00 -1.03605e+02  7.48663e-14  7.48663e-08 -5.02021e-09  0.00000e+00  4.80180e-01 
 6.19261e-03  4.18701e-03  0.00000e+00  3.47944e+00  1.00000e-05  3.55378e+02  3.60058e+02  3.34462e+00  3.34494e+00  4.03579e-13  2.88002e-08  3.48554e+03 5.36315e-230 -2.63184e-04  9.16621e+03  0.00000e+00  9.16621e+03  5.27817e+01 -1.79855e+01  4.29133e-13  4.29133e-07 -2.88002e-08  0.00000e+00  5.25932e-01 
 6.35626e-03  4.42546e-03  0.00000e+00  3.47944e+00  1.00000e-05  3.55489e+02  3.60058e+02  3.32934e+00  3.32962e+00  2.36745e-12  1.69700e-07  3.48555e+03 9.55219e-216 -1.58195e-03  9.00344e+03  0.00000e+00  9.00344e+03  3.11007e+02 -3.01887e+00  2.50230e-12  2.50230e-06 -1.69700e-07  0.00000e+00  5.76905e-01 
 6.52453e-03  4.66392e-03 -8.96437e-21  3.47944e+00  1.00000e-05  3.55607e+02  3.60058e+02  3.31289e+00  3.31314e+00  1.42748e-11  1.00638e-06  3.48555e+03 3.81394e-202 -9.78878e-03  9.02574e+03  0.00000e+00  9.02573e+03  1.84437e+03 -4.39822e-01  1.50137e-11  1.50137e-05 -1.00638e-06  0.00000e+00  6.33729e-01 
 6.69707e-03  4.90238e-03  1.72236e-20  3.47944e+00  1.00000e-05  3.55731e+02  3.60058e+02  3.29496e+00  3.29519e+00  8.29193e-11  5.90404e-06  3.48555e+03 3.47083e-189 -5.86312e-02  8.96518e+03  0.00000e+00  8.96512e+03  1.08202e+04 -1.15020e-02  8.71590e-11  8.71590e-05 -5.90402e-06  0.00000e+00  6.97116e-01 
 6.87356e-03  5.14086e-03  8.28595e-21  3.47944e+00  1.00000e-05  3.55863e+02  3.60058e+02  3.27577e+00  3.27600e+00  4.74724e-10  3.34889e-05  3.48555e+03 7.30377e-177 -3.44390e-01  9.39111e+03  0.00000e+00  9.39077e+03  6.13745e+04  7.07653e+04  4.95995e-10  4.95995e-04 -3.34888e-05  0.00000e+00  7.67842e-01 
 7.05370e-03  5.37934e-03 -1.59677e-20  3.47944e+00  1.00000e-05  3.56003e+02  3.60057e+02  3.25500e+00  3.25522e+00  2.65722e-09  1.86023e-04  3.48553e+03 3.99811e-165 -1.98290e+00  9.78487e+03  0.00000e+00  9.78289e+03  3.40918e+05  3.50701e+05  2.76537e-09  2.76537e-03 -1.86022e-04  0.00000e+00  8.47079e-01 
 7.23722e-03  5.61783e-03  0.00000e+00  3.47944e+00  1.00000e-05  3.56150e+02  3.60056e+02  3.23272e+00  3.23293e+00  1.45113e-08  1.00794e-03  3.48548e+03 5.81165e-154 -1.11484e+01  9.19970e+03  0.00000e+00  9.18855e+03  1.84720e+06  1.85638e+06  1.50480e-08  1.50480e-02 -1.00794e-03  0.00000e+00  9.35928e-01 
 7.42387e-03  5.85632e-03  0.00000e+00  3.47944e+00  1.00000e-05  3.56306e+02  3.60056e+02  3.20867e+00  3.20887e+00  7.69217e-08  5.40418e-03  3.48545e+03 2.65904e-143 -6.11849e+01  8.71259e+03  0.00000e+00  8.65140e+03  9.90383e+06  9.91249e+06  7.98791e-08  7.98791e-02 -5.40416e-03  0.00000e+00  1.03628e+00 
 7.61342e-03  6.09482e-03  0.00000e+00  3.47944e+00  1.00000e-05  3.56471e+02  3.60056e+02  3.18290e+00  3.18310e+00  4.01554e-07  2.80094e-02  3.48545e+03 3.87696e-133 -3.29965e+02  8.57932e+03  0.00000e+00  8.24936e+03  5.13306e+07  5.13388e+07  4.16376e-07  4.16376e-01 -2.80092e-02  0.00000e+00  1.14983e+00 
 7.80566e-03  6.33332e-03  0.00000e+00  3.47944e+00  1.00000e-05  3.56646e+02  3.60056e+02  3.15501e+00  3.15520e+00  2.04686e-06  1.44266e-01  3.48545e+03 2.26011e-123 -1.74285e+03  8.44195e+03  0.00000e+00  6.69909e+03  1.24500e+08  1.24507e+08  2.12357e-06  1.00000e+00 -1.44265e-01  0.00000e+00  1.27986e+00 
 8.00039e-03  6.57182e-03  0.00000e+00  3.47944e+00  1.00000e-05  3.56831e+02  3.60056e+02  3.12517e+00  3.12535e+00  1.02028e-05  7.05692e-01  3.48546e+03 5.10116e-114 -8.90910e+03  8.33524e+03  0.00000e+00 -5.73861e+02  1.23509e+08  1.23508e+08  1.04711e-05  1.00000e+00 -7.05689e-01  0.00000e+00  1.42907e+00 
 8.19744e-03  6.81033e-03  1.31016e-20  3.47944e+00  1.00000e-05  3.57028e+02  3.60056e+02  3.09284e+00  3.09300e+00  4.98707e-05  3.46763e+00  3.48547e+03 6.19658e-105 -4.50525e+04  8.17897e+03  0.00000e+00 -3.68736e+04  1.24622e+08  1.24585e+08  5.09935e-05  1.00000e+00 -3.46761e+00  0.00000e+00  1.60384e+00 
 8.39664e-03  7.04884e-03  0.00000e+00  3.47944e+00  1.00000e-05  3.57235e+02  3.60056e+02  3.05815e+00  3.05831e+00  2.36997e-04  1.65345e+01  3.48548e+03  3.66855e-96 -2.21735e+05  8.01834e+03  0.00000e+00 -2.13717e+05  1.25575e+08  1.25361e+08  2.41304e-04  1.00000e+00 -1.65344e+01  0.00000e+00  1.80909e+00 
 8.59784e-03  7.28736e-03  0.00000e+00  3.47944e+00  1.16158e-05  3.57461e+02  3.60056e+02  3.02087e+00  3.02108e+00  9.29576e-04  6.43931e+01  3.00066e+03  2.29905e-65 -6.92584e+05  6.96120e+03  0.00000e+00 -6.85623e+05  1.07905e+08  1.07220e+08  9.37296e-04  1.00000e+00 -6.43927e+01  0.00000e+00  2.05898e+00 
 8.80092e-03  7.52587e-03  0.00000e+00  3.47944e+00  1.91027e-05  3.57702e+02  3.60057e+02  2.98007e+00  2.98067e+00  2.36273e-03  1.59541e+02  1.82461e+03  1.56478e-20 -7.94610e+05  4.27959e+03  0.00000e+00 -7.90330e+05  6.43484e+07  6.35581e+07  2.37463e-03  1.00000e+00 -1.59540e+02  0.00000e+00  2.36457e+00 
 9.00573e-03  7.76439e-03 -1.17014e-20  3.47944e+00  2.92811e-05  3.57953e+02  3.60057e+02  2.93677e+00  2.93823e+00  4.94274e-03  2.73014e+02  1.19036e+03  2.22803e-04 -8.44752e+05  2.88555e+03  0.00000e+00 -8.41867e+05  3.45092e+07  3.36673e+07  4.95212e-03  1.00000e+00 -2.73012e+02  0.00000e+00  2.76321e+00 
 9.21216e-03  8.00291e-03  0.00000e+00  3.47944e+00  4.06596e-05  3.58211e+02  3.60057e+02  2.88561e+00  2.88835e+00  9.85446e-03  2.86779e+02  8.57242e+02  1.84330e+02 -1.01453e+06  2.07353e+03  0.00000e+00 -1.01227e+06  1.31211e+07  1.21088e+07  9.85552e-03  1.00000e+00 -2.86776e+02  0.00000e+00  3.29527e+00 
 9.42012e-03  8.24144e-03  0.00000e+00  3.47944e+00  4.97002e-05  3.58484e+02  3.60057e+02  2.83101e+00  2.83462e+00  1.88008e-02  3.50415e+02  7.01310e+02  3.02218e+04 -1.46486e+06  1.66382e+03  0.00000e+00 -1.43297e+06  6.87823e+06  5.44526e+06  1.87923e-02  1.00000e+00 -3.50412e+02  0.00000e+00  4.07541e+00 
 9.62949e-03  8.47996e-03  0.00000e+00  3.47944e+00  5.75349e-05  3.58774e+02  3.60057e+02  2.75517e+00  2.75985e+00  3.35821e-02  4.27337e+02  6.05811e+02  4.06526e+05 -2.19702e+06  1.40804e+03  0.00000e+00 -1.78908e+06  4.05920e+06  2.27012e+06  3.35439e-02  1.00000e+00 -4.27332e+02  0.00000e+00  5.23300e+00 
 9.84019e-03  8.71849e-03  0.00000e+00  3.47944e+00  6.33187e-05  3.59083e+02  3.60057e+02  2.67285e+00  2.67817e+00  6.02605e-02  5.41343e+02  5.50476e+02  1.81455e+06 -3.70291e+06  1.22749e+03  0.00000e+00 -1.88713e+06  2.59568e+06  7.08558e+05  6.03762e-02  1.00000e+00 -5.41336e+02  0.00000e+00  7.21972e+00 
 1.00521e-02  8.95702e-03  0.00000e+00  3.47944e+00  6.69122e-05  3.59410e+02  3.60058e+02  2.53251e+00  2.53798e+00  9.67667e-02  5.54461e+02  5.20916e+02  4.73185e+06 -6.11800e+06  1.10530e+03  0.00000e+00 -1.38505e+06  1.56595e+06  1.80898e+05  9.70383e-02  1.00000e+00 -5.54451e+02  0.00000e+00  1.07490e+01 
 1.02653e-02  9.19555e-03  0.00000e+00  3.47944e+00  6.92465e-05  3.59770e+02  3.60058e+02  2.36007e+00  2.36369e+00  1.55710e-01  3.92046e+02  5.03358e+02  1.05710e+07 -1.10226e+07  9.73625e+02  0.00000e+00 -4.50672e+05  6.66070e+05  2.15397e+05  1.55819e-01  1.00000e+00 -3.92032e+02  0.00000e+00  1.91466e+01 
 1.04795e-02  9.43408e-03  0.00000e+00  3.47944e+00  7.27237e-05  3.60291e+02  3.60059e+02  1.98787e+00  1.99020e+00  2.18644e-01 -3.38858e+03  4.79296e+02  2.33116e+07 -1.85899e+07  8.36835e+02  2.62975e+06  7.35234e+06 -7.61391e+06 -2.61573e+05  2.18695e-01  1.00000e+00  3.38860e+03  2.53800e+03  4.84486e+01 
