# Code_Saturne plot output (1D profile)
#
# Iteration output: 4938
# Time output:      2.30005e+01
#
#COLUMN_TITLES: Distance | X | Y | Z | diameter_Field2 | temp_Field1 | temp_Field2 | Velocity_Field1[Z] | Velocity_Field2[Z] | vol_f_Field2 | mass_trans_Field1 | Xd_Field2 | BK | COAL | COMP | NUCL | W1 | MT | SMBR | ALPBB | CONDNUM | GAMA | GAMANUC | epsilon_Field1
 4.56474e-03  1.39645e-04  0.00000e+00  3.47944e+00  3.26726e-04  3.60097e+02  3.60061e+02  5.52928e+00  5.60542e+00  2.86264e-01 -6.89248e+00  1.06608e+02  5.39197e+05 -7.83110e+05  8.88530e+02  0.00000e+00 -2.43025e+05 -1.16870e+03 -2.44194e+05  2.86275e-01  1.00000e+00  7.11162e+00  0.00000e+00  1.40171e+00 
 4.57812e-03  3.76525e-04  4.25872e-21  3.47944e+00  3.36194e-04  3.60097e+02  3.60061e+02  5.52753e+00  5.60636e+00  2.87226e-01 -6.72722e+00  1.03605e+02  5.31596e+05 -7.47996e+05  8.63533e+02  0.00000e+00 -2.15537e+05 -1.10460e+03 -2.16642e+05  2.87236e-01  1.00000e+00  6.93959e+00  0.00000e+00  1.41728e+00 
 4.60371e-03  6.13858e-04  0.00000e+00  3.47944e+00  3.41807e-04  3.60097e+02  3.60061e+02  5.52436e+00  5.60450e+00  2.88691e-01 -6.73599e+00  1.01904e+02  5.31607e+05 -7.33415e+05  8.49273e+02  0.00000e+00 -2.00959e+05 -1.08185e+03 -2.02041e+05  2.88702e-01  1.00000e+00  6.94536e+00  0.00000e+00  1.44752e+00 
 4.64138e-03  8.51483e-04  0.00000e+00  3.47944e+00  3.45746e-04  3.60098e+02  3.60061e+02  5.51967e+00  5.60047e+00  2.90787e-01 -6.85558e+00  1.00743e+02  5.36474e+05 -7.29218e+05  8.39309e+02  0.00000e+00 -1.91904e+05 -1.07994e+03 -1.92984e+05  2.90797e-01  1.00000e+00  7.06388e+00  0.00000e+00  1.49294e+00 
 4.69084e-03  1.08931e-03  0.00000e+00  3.47944e+00  3.49247e-04  3.60098e+02  3.60061e+02  5.51336e+00  5.59451e+00  2.93518e-01 -7.05157e+00  9.97330e+01  5.44484e+05 -7.30053e+05  8.30424e+02  0.00000e+00 -1.84738e+05 -1.08853e+03 -1.85827e+05  2.93528e-01  1.00000e+00  7.25969e+00  0.00000e+00  1.55401e+00 
 4.75174e-03  1.32727e-03  1.05001e-20  3.47944e+00  3.52834e-04  3.60099e+02  3.60061e+02  5.50535e+00  5.58672e+00  2.96836e-01 -7.30700e+00  9.87190e+01  5.54763e+05 -7.33526e+05  8.21335e+02  0.00000e+00 -1.77942e+05 -1.10294e+03 -1.79045e+05  2.96845e-01  1.00000e+00  7.51539e+00  0.00000e+00  1.63153e+00 
 4.82366e-03  1.56534e-03  0.00000e+00  3.47944e+00  3.56768e-04  3.60099e+02  3.60061e+02  5.49558e+00  5.57712e+00  3.00730e-01 -7.61141e+00  9.76305e+01  5.66603e+05 -7.38363e+05  8.11458e+02  0.00000e+00 -1.70949e+05 -1.12034e+03 -1.72069e+05  3.00739e-01  1.00000e+00  7.82028e+00  0.00000e+00  1.72634e+00 
 4.90611e-03  1.80349e-03  8.81027e-21  3.47944e+00  3.61131e-04  3.60100e+02  3.60061e+02  5.48397e+00  5.56567e+00  3.05129e-01 -7.95670e+00  9.64510e+01  5.79530e+05 -7.43809e+05  8.00648e+02  0.00000e+00 -1.63478e+05 -1.13910e+03 -1.64617e+05  3.05138e-01  1.00000e+00  8.16616e+00  0.00000e+00  1.83946e+00 
 4.99859e-03  2.04170e-03  0.00000e+00  3.47944e+00  3.65944e-04  3.60101e+02  3.60061e+02  5.47047e+00  5.55233e+00  3.09997e-01 -8.33618e+00  9.51824e+01  5.93072e+05 -7.49400e+05  7.88916e+02  0.00000e+00 -1.55539e+05 -1.15797e+03 -1.56697e+05  3.10006e-01  1.00000e+00  8.54624e+00  0.00000e+00  1.97190e+00 
 5.10055e-03  2.27996e-03  7.58893e-21  3.47944e+00  3.71149e-04  3.60102e+02  3.60061e+02  5.45500e+00  5.53703e+00  3.15253e-01 -8.74383e+00  9.38476e+01  6.06921e+05 -7.54861e+05  7.76441e+02  0.00000e+00 -1.47163e+05 -1.17633e+03 -1.48339e+05  3.15261e-01  1.00000e+00  8.95449e+00  0.00000e+00  2.12479e+00 
 5.21143e-03  2.51826e-03  7.09702e-21  3.47944e+00  3.76657e-04  3.60103e+02  3.60061e+02  5.43753e+00  5.51972e+00  3.20849e-01 -9.17481e+00  9.24755e+01  6.20811e+05 -7.60104e+05  7.63459e+02  0.00000e+00 -1.38530e+05 -1.19381e+03 -1.39724e+05  3.20858e-01  1.00000e+00  9.38610e+00  0.00000e+00  2.29919e+00 
 5.33068e-03  2.75659e-03  1.33300e-20  3.47944e+00  3.82325e-04  3.60104e+02  3.60061e+02  5.41801e+00  5.50035e+00  3.26707e-01 -9.62544e+00  9.11045e+01  6.34672e+05 -7.65193e+05  7.50277e+02  0.00000e+00 -1.29772e+05 -1.21055e+03 -1.30982e+05  3.26717e-01  1.00000e+00  9.83740e+00  0.00000e+00  2.49632e+00 
 5.45775e-03  2.99495e-03  1.25651e-20  3.47944e+00  3.87996e-04  3.60105e+02  3.60061e+02  5.39642e+00  5.47887e+00  3.32800e-01 -1.00940e+01  8.97731e+01  6.48488e+05 -7.70393e+05  7.37207e+02  0.00000e+00 -1.21168e+05 -1.22691e+03 -1.22395e+05  3.32809e-01  1.00000e+00  1.03068e+01  0.00000e+00  2.71733e+00 
 5.59212e-03  3.23333e-03  0.00000e+00  3.47944e+00  3.93471e-04  3.60106e+02  3.60061e+02  5.37276e+00  5.45524e+00  3.39019e-01 -1.05794e+01  8.85241e+01  6.62530e+05 -7.75992e+05  7.24564e+02  0.00000e+00 -1.12738e+05 -1.24369e+03 -1.13981e+05  3.39026e-01  1.00000e+00  1.07931e+01  0.00000e+00  2.96375e+00 
 5.73326e-03  3.47172e-03  0.00000e+00  3.47944e+00  3.98562e-04  3.60107e+02  3.60061e+02  5.34702e+00  5.42943e+00  3.45356e-01 -1.10835e+01  8.73935e+01  6.76971e+05 -7.82493e+05  7.12698e+02  0.00000e+00 -1.04810e+05 -1.26174e+03 -1.06072e+05  3.45359e-01  1.00000e+00  1.12986e+01  0.00000e+00  3.23655e+00 
 5.88069e-03  3.71014e-03 -5.35987e-21  3.47944e+00  4.03065e-04  3.60108e+02  3.60061e+02  5.31918e+00  5.40139e+00  3.51688e-01 -1.16072e+01  8.64173e+01  6.92399e+05 -7.90346e+05  7.01731e+02  0.00000e+00 -9.72451e+04 -1.28216e+03 -9.85273e+04  3.51687e-01  1.00000e+00  1.18239e+01  0.00000e+00  3.53840e+00 
 6.03395e-03  3.94857e-03  5.10973e-21  3.47944e+00  4.06815e-04  3.60109e+02  3.60061e+02  5.28923e+00  5.37109e+00  3.57978e-01 -1.21558e+01  8.56209e+01  7.09111e+05 -8.00046e+05  6.92089e+02  0.00000e+00 -9.02429e+04 -1.30616e+03 -9.15490e+04  3.57978e-01  1.00000e+00  1.23747e+01  0.00000e+00  3.87012e+00 
 6.19261e-03  4.18701e-03  0.00000e+00  3.47944e+00  4.09663e-04  3.60109e+02  3.60062e+02  5.25713e+00  5.33842e+00  3.64154e-01 -1.27314e+01  8.50259e+01  7.27740e+05 -8.12127e+05  6.83795e+02  0.00000e+00 -8.37038e+04 -1.33465e+03 -8.50384e+04  3.64156e-01  1.00000e+00  1.29529e+01  0.00000e+00  4.23506e+00 
 6.35626e-03  4.42546e-03  0.00000e+00  3.47944e+00  4.11523e-04  3.60110e+02  3.60062e+02  5.22280e+00  5.30332e+00  3.70270e-01 -1.33440e+01  8.46420e+01  7.48616e+05 -8.27216e+05  6.77020e+02  0.00000e+00 -7.79229e+04 -1.36880e+03 -7.92917e+04  3.70276e-01  1.00000e+00  1.35688e+01  0.00000e+00  4.63619e+00 
 6.52453e-03  4.66392e-03 -8.96437e-21  3.47944e+00  4.12314e-04  3.60111e+02  3.60062e+02  5.18616e+00  5.26568e+00  3.76299e-01 -1.39979e+01  8.44797e+01  7.72341e+05 -8.45877e+05  6.71667e+02  0.00000e+00 -7.28636e+04 -1.40946e+03 -7.42731e+04  3.76309e-01  1.00000e+00  1.42268e+01  0.00000e+00  5.07845e+00 
 6.69707e-03  4.90238e-03  1.72236e-20  3.47944e+00  4.12031e-04  3.60112e+02  3.60062e+02  5.14709e+00  5.22538e+00  3.82271e-01 -1.47054e+01  8.45382e+01  7.99226e+05 -8.68575e+05  6.67783e+02  0.00000e+00 -6.86808e+04 -1.45791e+03 -7.01387e+04  3.82282e-01  1.00000e+00  1.49390e+01  0.00000e+00  5.56587e+00 
 6.87356e-03  5.14086e-03  8.28595e-21  3.47944e+00  4.10637e-04  3.60113e+02  3.60062e+02  5.10543e+00  5.18225e+00  3.88136e-01 -1.54737e+01  8.48255e+01  8.29994e+05 -8.95887e+05  6.65304e+02  0.00000e+00 -6.52280e+04 -1.51540e+03 -6.67434e+04  3.88146e-01  1.00000e+00  1.57129e+01  0.00000e+00  6.10577e+00 
 7.05370e-03  5.37934e-03 -1.59677e-20  3.47944e+00  4.08181e-04  3.60113e+02  3.60062e+02  5.06100e+00  5.13612e+00  3.93927e-01 -1.63207e+01  8.53361e+01  8.64966e+05 -9.28280e+05  6.64193e+02  0.00000e+00 -6.26501e+04 -1.58372e+03 -6.42338e+04  3.93935e-01  1.00000e+00  1.65663e+01  0.00000e+00  6.70409e+00 
 7.23722e-03  5.61783e-03  0.00000e+00  3.47944e+00  4.04639e-04  3.60114e+02  3.60062e+02  5.01365e+00  5.08684e+00  3.99571e-01 -1.72618e+01  8.60836e+01  9.05185e+05 -9.66540e+05  6.64416e+02  0.00000e+00 -6.06906e+04 -1.66520e+03 -6.23558e+04  3.99579e-01  1.00000e+00  1.75148e+01  0.00000e+00  7.37260e+00 
 7.42387e-03  5.85632e-03  0.00000e+00  3.47944e+00  4.00092e-04  3.60115e+02  3.60063e+02  4.96300e+00  5.03409e+00  4.05147e-01 -1.83274e+01  8.70624e+01  9.51030e+05 -1.01135e+06  6.65901e+02  0.00000e+00 -5.96566e+04 -1.76280e+03 -6.14194e+04  4.05156e-01  1.00000e+00  1.85887e+01  0.00000e+00  8.12051e+00 
 7.61342e-03  6.09482e-03  0.00000e+00  3.47944e+00  3.94483e-04  3.60116e+02  3.60063e+02  4.90899e+00  4.97776e+00  4.10564e-01 -1.95512e+01  8.83008e+01  1.00420e+06 -1.06404e+06  6.68659e+02  0.00000e+00 -5.91712e+04 -1.88136e+03 -6.10526e+04  4.10572e-01  1.00000e+00  1.98221e+01  0.00000e+00  8.96806e+00 
 7.80566e-03  6.33332e-03  0.00000e+00  3.47944e+00  3.87913e-04  3.60117e+02  3.60063e+02  4.85080e+00  4.91708e+00  4.15949e-01 -2.09895e+01  8.97967e+01  1.06523e+06 -1.12574e+06  6.72649e+02  0.00000e+00 -5.98432e+04 -2.02651e+03 -6.18697e+04  4.15959e-01  1.00000e+00  2.12711e+01  0.00000e+00  9.92928e+00 
 8.00039e-03  6.57182e-03  0.00000e+00  3.47944e+00  3.80265e-04  3.60118e+02  3.60063e+02  4.78878e+00  4.85237e+00  4.21196e-01 -2.27164e+01  9.16034e+01  1.13699e+06 -1.19887e+06  6.77998e+02  0.00000e+00 -6.12000e+04 -2.20846e+03 -6.34084e+04  4.21206e-01  1.00000e+00  2.30103e+01  0.00000e+00  1.10403e+01 
 8.19744e-03  6.81033e-03  1.31016e-20  3.47944e+00  3.71643e-04  3.60120e+02  3.60064e+02  4.72087e+00  4.78162e+00  4.26441e-01 -2.48463e+01  9.37292e+01  1.22065e+06 -1.28541e+06  6.84577e+02  0.00000e+00 -6.40824e+04 -2.43986e+03 -6.65223e+04  4.26452e-01  1.00000e+00  2.51541e+01  0.00000e+00  1.23261e+01 
 8.39664e-03  7.04884e-03  0.00000e+00  3.47944e+00  3.61838e-04  3.60121e+02  3.60064e+02  4.64892e+00  4.70662e+00  4.31567e-01 -2.75499e+01  9.62696e+01  1.32122e+06 -1.39001e+06  6.93080e+02  0.00000e+00 -6.81031e+04 -2.74399e+03 -7.08471e+04  4.31576e-01  1.00000e+00  2.78739e+01  0.00000e+00  1.38509e+01 
 8.59784e-03  7.28736e-03  0.00000e+00  3.47944e+00  3.50955e-04  3.60124e+02  3.60064e+02  4.56730e+00  4.62177e+00  4.36746e-01 -3.10895e+01  9.92556e+01  1.44147e+06 -1.51677e+06  7.02589e+02  0.00000e+00 -7.46005e+04 -3.15244e+03 -7.77529e+04  4.36754e-01  1.00000e+00  3.14322e+01  0.00000e+00  1.56667e+01 
 8.80092e-03  7.52587e-03  0.00000e+00  3.47944e+00  3.38626e-04  3.60127e+02  3.60065e+02  4.48292e+00  4.53401e+00  4.41809e-01 -3.59060e+01  1.02870e+02  1.59215e+06 -1.67546e+06  7.14448e+02  0.00000e+00 -8.25978e+04 -3.72699e+03 -8.63248e+04  4.41817e-01  1.00000e+00  3.62708e+01  0.00000e+00  1.79219e+01 
 9.00573e-03  7.76439e-03 -1.17014e-20  3.47944e+00  3.24984e-04  3.60132e+02  3.60065e+02  4.37974e+00  4.42721e+00  4.46999e-01 -4.27202e+01  1.07190e+02  1.77875e+06 -1.87550e+06  7.28131e+02  0.00000e+00 -9.60258e+04 -4.56225e+03 -1.00588e+05  4.47010e-01  1.00000e+00  4.31113e+01  0.00000e+00  2.07007e+01 
 9.21216e-03  8.00291e-03  0.00000e+00  3.47944e+00  3.09356e-04  3.60139e+02  3.60066e+02  4.27919e+00  4.32286e+00  4.52168e-01 -5.28906e+01  1.12605e+02  2.02814e+06 -2.14143e+06  7.45847e+02  0.00000e+00 -1.12544e+05 -5.85926e+03 -1.18403e+05  4.52181e-01  1.00000e+00  5.33144e+01  0.00000e+00  2.44101e+01 
 9.42012e-03  8.24144e-03  0.00000e+00  3.47944e+00  2.91923e-04  3.60149e+02  3.60066e+02  4.13552e+00  4.17457e+00  4.57523e-01 -6.89282e+01  1.19331e+02  2.35604e+06 -2.49976e+06  7.67024e+02  0.00000e+00 -1.42950e+05 -7.98712e+03 -1.50938e+05  4.57540e-01  1.00000e+00  6.93922e+01  0.00000e+00  2.92334e+01 
 9.62949e-03  8.47996e-03  0.00000e+00  3.47944e+00  2.71436e-04  3.60166e+02  3.60067e+02  4.00886e+00  4.04379e+00  4.62981e-01 -9.65367e+01  1.28340e+02  2.84148e+06 -3.02675e+06  7.96047e+02  0.00000e+00 -1.84475e+05 -1.18729e+04 -1.96348e+05  4.62999e-01  1.00000e+00  9.70547e+01  0.00000e+00  3.64079e+01 
 9.84019e-03  8.71849e-03  0.00000e+00  3.47944e+00  2.47899e-04  3.60194e+02  3.60068e+02  3.79747e+00  3.82793e+00  4.68616e-01 -1.49207e+02  1.40527e+02  3.57210e+06 -3.83538e+06  8.28126e+02  0.00000e+00 -2.62446e+05 -1.98247e+04 -2.82270e+05  4.68636e-01  1.00000e+00  1.49798e+02  0.00000e+00  4.70909e+01 
 1.00521e-02  8.95702e-03  0.00000e+00  3.47944e+00  2.18790e-04  3.60248e+02  3.60068e+02  3.60736e+00  3.63400e+00  4.74560e-01 -2.70073e+02  1.59226e+02  4.91144e+06 -5.29151e+06  8.83249e+02  0.00000e+00 -3.79191e+05 -4.00997e+04 -4.19290e+05  4.74578e-01  1.00000e+00  2.70776e+02  0.00000e+00  6.70675e+01 
 1.02653e-02  9.19555e-03  0.00000e+00  3.47944e+00  1.83918e-04  3.60378e+02  3.60070e+02  3.22862e+00  3.25097e+00  4.81004e-01 -6.29960e+02  1.89419e+02  7.69442e+06 -8.22573e+06  9.34477e+02  0.00000e+00 -5.30380e+05 -1.09636e+05 -6.40016e+05  4.81017e-01  1.00000e+00  6.30842e+02  0.00000e+00  1.10712e+02 
 1.04795e-02  9.43408e-03  0.00000e+00  3.47944e+00  1.43416e-04  3.60843e+02  3.60071e+02  2.71273e+00  2.72673e+00  4.90529e-01 -5.85838e+03  2.42919e+02  1.58596e+07 -1.49657e+07  1.03559e+03  1.49354e+06  2.38850e+06 -2.42177e+06 -3.32659e+04  4.90515e-01  1.00000e+00  5.85958e+03  3.45834e+03  2.78899e+02 
