# Code_Saturne plot output (1D profile)
#
# Iteration output: 18422
# Time output:      1.50926e+01
#
#COLUMN_TITLES: Distance | X | Y | Z | diameter_Field2 | temp_Field1 | temp_Field2 | Velocity_Field1[Z] | Velocity_Field2[Z] | vol_f_Field2 | mass_trans_Field1 | Xd_Field2 | BK | COAL | COMP | NUCL | W1 | MT | SMBR | ALPBB | CONDNUM | GAMA | GAMANUC | epsilon_Field1
 4.56474e-03  1.39645e-04  0.00000e+00  3.47944e+00  8.29977e-04  3.60251e+02  3.60058e+02  9.49797e+00  9.63650e+00  5.81653e-01 -3.04020e+01  4.18677e+01  1.67329e+05 -9.93821e+04  6.24180e+02  0.00000e+00  6.85707e+04 -1.29554e+03  6.72752e+04  5.90092e-01  1.00000e+00  3.03762e+01  0.00000e+00  1.46422e+01 
 4.57812e-03  3.76525e-04  4.25872e-21  3.47944e+00  8.28742e-04  3.60251e+02  3.60058e+02  9.49655e+00  9.63416e+00  5.85068e-01 -3.04593e+01  4.19300e+01  1.66374e+05 -1.00467e+05  6.26313e+02  0.00000e+00  6.65329e+04 -1.29188e+03  6.52410e+04  5.93758e-01  1.00000e+00  3.04334e+01  0.00000e+00  1.46505e+01 
 4.60371e-03  6.13858e-04  0.00000e+00  3.47944e+00  8.25925e-04  3.60251e+02  3.60058e+02  9.49597e+00  9.63200e+00  5.89018e-01 -3.05728e+01  4.20731e+01  1.65424e+05 -1.02714e+05  6.30098e+02  0.00000e+00  6.33401e+04 -1.29135e+03  6.20487e+04  5.98179e-01  1.00000e+00  3.05468e+01  0.00000e+00  1.46126e+01 
 4.64138e-03  8.51483e-04  0.00000e+00  3.47944e+00  8.22050e-04  3.60250e+02  3.60058e+02  9.49626e+00  9.63062e+00  5.94508e-01 -3.07293e+01  4.22714e+01  1.63932e+05 -1.06083e+05  6.36358e+02  0.00000e+00  5.84856e+04 -1.29060e+03  5.71950e+04  6.04337e-01  1.00000e+00  3.07031e+01  0.00000e+00  1.45447e+01 
 4.69084e-03  1.08931e-03  0.00000e+00  3.47944e+00  8.17114e-04  3.60249e+02  3.60058e+02  9.49650e+00  9.62912e+00  6.02293e-01 -3.09443e+01  4.25268e+01  1.61821e+05 -1.10469e+05  6.43332e+02  0.00000e+00  5.19951e+04 -1.28897e+03  5.07061e+04  6.12881e-01  1.00000e+00  3.09178e+01  0.00000e+00  1.45026e+01 
 4.75174e-03  1.32727e-03  1.05001e-20  3.47944e+00  8.11189e-04  3.60248e+02  3.60058e+02  9.49611e+00  9.62676e+00  6.11147e-01 -3.10912e+01  4.28376e+01  1.59638e+05 -1.15650e+05  6.51607e+02  0.00000e+00  4.46405e+04 -1.28410e+03  4.33564e+04  6.22501e-01  1.00000e+00  3.10643e+01  0.00000e+00  1.44967e+01 
 4.82366e-03  1.56534e-03  0.00000e+00  3.47944e+00  8.04481e-04  3.60247e+02  3.60058e+02  9.49426e+00  9.62269e+00  6.21249e-01 -3.13157e+01  4.31948e+01  1.57139e+05 -1.21647e+05  6.61217e+02  0.00000e+00  3.61536e+04 -1.28122e+03  3.48724e+04  6.33458e-01  1.00000e+00  3.12885e+01  0.00000e+00  1.45179e+01 
 4.90611e-03  1.80349e-03  8.81027e-21  3.47944e+00  7.97330e-04  3.60245e+02  3.60058e+02  9.48932e+00  9.61558e+00  6.34558e-01 -3.15958e+01  4.35825e+01  1.53293e+05 -1.28752e+05  6.76925e+02  0.00000e+00  2.52174e+04 -1.27498e+03  2.39424e+04  6.47794e-01  1.00000e+00  3.15681e+01  0.00000e+00  1.45598e+01 
 4.99859e-03  2.04170e-03  0.00000e+00  3.47944e+00  7.89861e-04  3.60244e+02  3.60059e+02  9.48252e+00  9.60681e+00  6.55215e-01 -3.18290e+01  4.39954e+01  1.46171e+05 -1.37829e+05  7.59868e+02  0.00000e+00  9.10141e+03 -1.25371e+03  7.84769e+03  6.69704e-01  1.00000e+00  3.18007e+01  0.00000e+00  1.46326e+01 
 5.10055e-03  2.27996e-03  7.58893e-21  3.47944e+00  7.81710e-04  3.60242e+02  3.60063e+02  9.47465e+00  9.59692e+00  6.76191e-01 -3.19647e+01  4.44566e+01  1.39211e+05 -1.47599e+05  1.04350e+03  0.00000e+00 -7.34527e+03 -1.23180e+03 -8.57707e+03  6.91474e-01  1.00000e+00  3.19359e+01  0.00000e+00  1.47545e+01 
 5.21143e-03  2.51826e-03  7.09702e-21  3.47944e+00  7.73029e-04  3.60240e+02  3.60068e+02  9.46540e+00  9.58556e+00  6.96968e-01 -3.22256e+01  4.49595e+01  1.32551e+05 -1.57934e+05  1.35402e+03  0.00000e+00 -2.40290e+04 -1.21834e+03 -2.52473e+04  7.12567e-01  1.00000e+00  3.21963e+01  0.00000e+00  1.49201e+01 
 5.33068e-03  2.75659e-03  1.33300e-20  3.47944e+00  7.64327e-04  3.60238e+02  3.60074e+02  9.45810e+00  9.57630e+00  7.21690e-01 -3.23355e+01  4.54756e+01  1.23960e+05 -1.69488e+05  1.43274e+03  0.00000e+00 -4.40958e+04 -1.19469e+03 -4.52905e+04  7.37300e-01  1.00000e+00  3.23057e+01  0.00000e+00  1.51173e+01 
 5.45775e-03  2.99495e-03  1.25651e-20  3.47944e+00  7.55510e-04  3.60235e+02  3.60080e+02  9.45458e+00  9.57070e+00  7.48612e-01 -3.21943e+01  4.60106e+01  1.14335e+05 -1.81974e+05  1.36993e+03  0.00000e+00 -6.62690e+04 -1.16180e+03 -6.74308e+04  7.63589e-01  1.00000e+00  3.21642e+01  0.00000e+00  1.53519e+01 
 5.59212e-03  3.23333e-03  0.00000e+00  3.47944e+00  7.46483e-04  3.60232e+02  3.60086e+02  9.45441e+00  9.56801e+00  7.76148e-01 -3.17756e+01  4.65712e+01  1.04587e+05 -1.94974e+05  1.25536e+03  0.00000e+00 -8.91319e+04 -1.12250e+03 -9.02544e+04  7.89545e-01  1.00000e+00  3.17453e+01  0.00000e+00  1.56555e+01 
 5.73326e-03  3.47172e-03  0.00000e+00  3.47944e+00  7.37049e-04  3.60229e+02  3.60092e+02  9.45603e+00  9.56559e+00  8.01239e-01 -3.28779e+01  4.71718e+01  9.64767e+04 -2.07460e+05  1.15650e+03  0.00000e+00 -1.09826e+05 -1.14431e+03 -1.10971e+05  8.11662e-01  1.00000e+00  3.28458e+01  0.00000e+00  1.60658e+01 
 5.88069e-03  3.71014e-03 -5.35987e-21  3.47944e+00  7.27393e-04  3.60225e+02  3.60098e+02  9.45850e+00  9.56260e+00  8.24035e-01 -3.58598e+01  4.78031e+01  8.95628e+04 -2.19532e+05  1.11524e+03  0.00000e+00 -1.28854e+05 -1.23567e+03 -1.30090e+05  8.30934e-01  1.00000e+00  3.58240e+01  0.00000e+00  1.65975e+01 
 6.03395e-03  3.94857e-03  5.10973e-21  3.47944e+00  7.17169e-04  3.60220e+02  3.60106e+02  9.45792e+00  9.55534e+00  8.43075e-01 -3.88507e+01  4.84901e+01  8.46128e+04 -2.31495e+05  1.07860e+03  0.00000e+00 -1.45803e+05 -1.33418e+03 -1.47137e+05  8.46199e-01  1.00000e+00  3.88108e+01  0.00000e+00  1.72551e+01 
 6.19261e-03  4.18701e-03  0.00000e+00  3.47944e+00  7.05474e-04  3.60215e+02  3.60114e+02  9.45050e+00  9.54111e+00  8.56984e-01 -4.01514e+01  4.93003e+01  8.36080e+04 -2.42890e+05  1.00030e+03  0.00000e+00 -1.58282e+05 -1.38846e+03 -1.59670e+05  8.54368e-01  1.00000e+00  4.01080e+01  0.00000e+00  1.80582e+01 
 6.35626e-03  4.42546e-03  0.00000e+00  3.47944e+00  6.93281e-04  3.60211e+02  3.60123e+02  9.43472e+00  9.51949e+00  8.62523e-01 -3.87155e+01  5.01740e+01  8.73616e+04 -2.53231e+05  8.82673e+02  0.00000e+00 -1.64987e+05 -1.36245e+03 -1.66349e+05  8.54749e-01  1.00000e+00  3.86706e+01  0.00000e+00  1.90228e+01 
 6.52453e-03  4.66392e-03 -8.96437e-21  3.47944e+00  6.80571e-04  3.60207e+02  3.60133e+02  9.41202e+00  9.49300e+00  8.58810e-01 -3.39212e+01  5.11182e+01  9.86080e+04 -2.61860e+05  7.20117e+02  0.00000e+00 -1.62532e+05 -1.23267e+03 -1.63765e+05  8.44077e-01  1.00000e+00  3.38777e+01  0.00000e+00  2.01294e+01 
 6.69707e-03  4.90238e-03  1.72236e-20  3.47944e+00  6.66872e-04  3.60203e+02  3.60142e+02  9.38879e+00  9.46740e+00  8.41201e-01 -2.80263e+01  5.21756e+01  1.17145e+05 -2.68015e+05  5.07782e+02  0.00000e+00 -1.50362e+05 -1.06429e+03 -1.51427e+05  8.24038e-01  1.00000e+00  2.79867e+01  0.00000e+00  2.13393e+01 
 6.87356e-03  5.14086e-03  8.28595e-21  3.47944e+00  6.52759e-04  3.60199e+02  3.60152e+02  9.36403e+00  9.44214e+00  8.16266e-01 -2.34853e+01  5.33113e+01  1.39636e+05 -2.75251e+05  2.98205e+02  0.00000e+00 -1.35317e+05 -9.37333e+02 -1.36254e+05  8.01276e-01  1.00000e+00  2.34497e+01  0.00000e+00  2.26163e+01 
 7.05370e-03  5.37934e-03 -1.59677e-20  3.47944e+00  6.37481e-04  3.60196e+02  3.60162e+02  9.33106e+00  9.40935e+00  7.90618e-01 -2.32970e+01  5.45973e+01  1.64499e+05 -2.86255e+05  1.84301e+02  0.00000e+00 -1.21571e+05 -9.80165e+02 -1.22551e+05  7.78856e-01  1.00000e+00  2.32605e+01  0.00000e+00  2.39012e+01 
 7.23722e-03  5.61783e-03  0.00000e+00  3.47944e+00  6.20815e-04  3.60194e+02  3.60174e+02  9.28576e+00  9.36430e+00  7.66896e-01 -2.36354e+01  5.60725e+01  1.90533e+05 -3.01086e+05  1.84156e+02  0.00000e+00 -1.10369e+05 -1.04822e+03 -1.11418e+05  7.58451e-01  1.00000e+00  2.35978e+01  0.00000e+00  2.52035e+01 
 7.42387e-03  5.85632e-03  0.00000e+00  3.47944e+00  6.02873e-04  3.60192e+02  3.60187e+02  9.23613e+00  9.31505e+00  7.47444e-01 -2.42145e+01  5.77526e+01  2.17055e+05 -3.20799e+05  2.30357e+02  0.00000e+00 -1.03514e+05 -1.13050e+03 -1.04644e+05  7.40978e-01  1.00000e+00  2.41759e+01  0.00000e+00  2.64483e+01 
 7.61342e-03  6.09482e-03  0.00000e+00  3.47944e+00  5.84735e-04  3.60190e+02  3.60202e+02  9.18297e+00  9.26250e+00  7.31816e-01 -2.49351e+01  5.95578e+01  2.42681e+05 -3.46537e+05  3.15144e+02  0.00000e+00 -1.03541e+05 -1.22139e+03 -1.04762e+05  7.27259e-01  1.00000e+00  2.48954e+01  0.00000e+00  2.75659e+01 
 7.80566e-03  6.33332e-03  0.00000e+00  3.47944e+00  5.66010e-04  3.60189e+02  3.60221e+02  9.14275e+00  9.22262e+00  7.20168e-01 -2.57452e+01  6.15458e+01  2.67621e+05 -3.81393e+05  5.64172e+02  0.00000e+00 -1.13208e+05 -1.32010e+03 -1.14528e+05  7.17341e-01  1.00000e+00  2.57043e+01  0.00000e+00  2.85760e+01 
 8.00039e-03  6.57182e-03  0.00000e+00  3.47944e+00  5.46901e-04  3.60187e+02  3.60249e+02  9.11108e+00  9.19186e+00  7.12302e-01 -2.66906e+01  6.37221e+01  2.91121e+05 -4.23023e+05  1.40614e+03  0.00000e+00 -1.30496e+05 -1.42680e+03 -1.31923e+05  7.10905e-01  1.00000e+00  2.66484e+01  0.00000e+00  2.95539e+01 
 8.19744e-03  6.81033e-03  1.31016e-20  3.47944e+00  5.28678e-04  3.60186e+02  3.60302e+02  9.06637e+00  9.14912e+00  7.08577e-01 -2.77219e+01  6.59716e+01  3.12065e+05 -4.75244e+05  4.86909e+03  0.00000e+00 -1.58310e+05 -1.53903e+03 -1.59849e+05  7.08311e-01  1.00000e+00  2.76786e+01  0.00000e+00  3.03623e+01 
 8.39664e-03  7.04884e-03  0.00000e+00  3.47944e+00  5.12134e-04  3.60184e+02  3.60400e+02  9.03904e+00  9.12603e+00  7.20057e-01 -2.88377e+01  6.82026e+01  3.15687e+05 -5.45180e+05  1.14934e+04  0.00000e+00 -2.18000e+05 -1.62673e+03 -2.19626e+05  7.21337e-01  1.00000e+00  2.87937e+01  0.00000e+00  3.09687e+01 
 8.59784e-03  7.28736e-03  0.00000e+00  3.47944e+00  4.94851e-04  3.60182e+02  3.60564e+02  9.02827e+00  9.12018e+00  7.26285e-01 -3.05779e+01  7.07565e+01  3.27138e+05 -6.22460e+05  2.01786e+04  0.00000e+00 -2.75144e+05 -1.77255e+03 -2.76916e+05  7.28527e-01  1.00000e+00  3.05327e+01  0.00000e+00  3.14957e+01 
 8.80092e-03  7.52587e-03  0.00000e+00  3.47944e+00  4.75552e-04  3.60180e+02  3.60863e+02  9.02899e+00  9.12366e+00  7.30799e-01 -3.32741e+01  7.39510e+01  3.44899e+05 -7.17608e+05  3.09672e+04  0.00000e+00 -3.41742e+05 -2.00206e+03 -3.43744e+05  7.33296e-01  1.00000e+00  3.32276e+01  0.00000e+00  3.19709e+01 
 9.00573e-03  7.76439e-03 -1.17014e-20  3.47944e+00  4.56918e-04  3.60177e+02  3.61281e+02  9.06014e+00  9.15714e+00  7.54776e-01 -3.65960e+01  7.74309e+01  3.38241e+05 -8.52001e+05  4.15342e+04  0.00000e+00 -4.72226e+05 -2.23719e+03 -4.74463e+05  7.56332e-01  1.00000e+00  3.65471e+01  0.00000e+00  3.23958e+01 
 9.21216e-03  8.00291e-03  0.00000e+00  3.47944e+00  4.31794e-04  3.60173e+02  3.61835e+02  9.09325e+00  9.18721e+00  7.62117e-01 -3.99605e+01  8.25760e+01  3.59706e+05 -1.03833e+06  4.60459e+04  0.00000e+00 -6.32580e+05 -2.57615e+03 -6.35157e+05  7.63505e-01  1.00000e+00  3.99093e+01  0.00000e+00  3.29602e+01 
 9.42012e-03  8.24144e-03  0.00000e+00  3.47944e+00  4.23215e-04  3.60169e+02  3.62608e+02  9.11740e+00  9.18390e+00  7.76116e-01 -4.57341e+01  8.51377e+01  3.57968e+05 -1.12926e+06  6.25888e+04  0.00000e+00 -7.08702e+05 -3.00628e+03 -7.11708e+05  7.73123e-01  1.00000e+00  4.56757e+01  0.00000e+00  3.33046e+01 
 9.62949e-03  8.47996e-03  0.00000e+00  3.47944e+00  4.24800e-04  3.60163e+02  3.63543e+02  8.97264e+00  9.01328e+00  8.65734e-01 -4.68014e+01  8.58585e+01  2.14208e+05 -1.26765e+06  8.22412e+04  0.00000e+00 -9.71197e+05 -2.78749e+03 -9.73984e+05  8.62320e-01  1.00000e+00  4.67373e+01  0.00000e+00  3.23546e+01 
 9.84019e-03  8.71849e-03  0.00000e+00  3.47944e+00  4.17952e-04  3.60158e+02  3.64848e+02  8.45120e+00  8.46400e+00  8.76945e-01 -4.80238e+01  8.86885e+01  1.87002e+05 -1.35273e+06  9.29324e+04  0.00000e+00 -1.07279e+06 -2.87371e+03 -1.07567e+06  8.76176e-01  1.00000e+00  4.79594e+01  0.00000e+00  2.91485e+01 
 1.00521e-02  8.95702e-03  0.00000e+00  3.47944e+00  4.22691e-04  3.60156e+02  3.67232e+02  7.28417e+00  7.28839e+00  8.91948e-01 -5.33316e+01  9.01342e+01  1.41307e+05 -1.17960e+06  7.91473e+04  0.00000e+00 -9.59150e+05 -3.03595e+03 -9.62186e+05  8.92469e-01  1.00000e+00  5.32681e+01  0.00000e+00  2.48606e+01 
 1.02653e-02  9.19555e-03  0.00000e+00  3.47944e+00  4.41581e-04  3.60158e+02  3.72337e+02  5.34582e+00  5.38479e+00  8.84670e-01 -6.42594e+01  9.08603e+01  1.40686e+05 -1.19468e+06  8.24522e+04  0.00000e+00 -9.71543e+05 -3.85335e+03 -9.75396e+05  8.84367e-01  1.00000e+00  6.42053e+01  0.00000e+00  2.15358e+01 
 1.04795e-02  9.43408e-03  0.00000e+00  3.47944e+00  5.50500e-04  3.60161e+02  3.90513e+02  1.74090e+00  1.76664e+00  8.84175e-01 -8.38281e+01  8.38005e+01  7.33008e+04 -7.58685e+05  1.54472e+05  6.46254e+04 -5.30912e+05 -4.67602e+03 -5.35588e+05  8.86109e-01  1.00000e+00  8.37922e+01  0.00000e+00  4.09737e+01 
