# Code_Saturne plot output (1D profile)
#
# Iteration output: 3752
# Time output:      2.30009e+01
#
#COLUMN_TITLES: Distance | X | Y | Z | diameter_Field2 | temp_Field1 | temp_Field2 | Velocity_Field1[Z] | Velocity_Field2[Z] | vol_f_Field2 | mass_trans_Field1 | Xd_Field2 | BK | COAL | COMP | NUCL | W1 | MT | SMBR | ALPBB | CONDNUM | GAMA | GAMANUC | epsilon_Field1
 4.56474e-03  1.39645e-04  0.00000e+00  3.47944e+00  1.54132e-05  3.59163e+02  3.60049e+02  4.29004e+00  4.29077e+00  4.53912e-03  1.94398e+02  2.26134e+03 3.67817e-152 -1.18912e+06  1.07276e+04  0.00000e+00 -1.17839e+06  5.15795e+07  5.04011e+07  4.55504e-03  1.00000e+00 -1.93865e+02  0.00000e+00  3.33596e-01 
 4.57812e-03  3.76525e-04  4.25872e-21  3.47944e+00  2.57367e-05  3.59163e+02  3.60049e+02  4.29004e+00  4.29178e+00  6.88098e-03  1.45228e+02  1.35427e+03  5.68367e-59 -7.61375e+05  6.31294e+03  0.00000e+00 -7.55062e+05  1.52476e+07  1.44925e+07  6.89601e-03  1.00000e+00 -1.44828e+02  0.00000e+00  3.36495e-01 
 4.60371e-03  6.13858e-04  0.00000e+00  3.47944e+00  3.72235e-05  3.59166e+02  3.60049e+02  4.28938e+00  4.29266e+00  9.08212e-03  1.12084e+02  9.36355e+02  1.51411e-27 -5.41074e+05  4.39318e+03  0.00000e+00 -5.36681e+05  6.17151e+06  5.63483e+06  9.09458e-03  1.00000e+00 -1.11773e+02  0.00000e+00  3.42055e-01 
 4.64138e-03  8.51483e-04  0.00000e+00  3.47944e+00  4.89380e-05  3.59172e+02  3.60049e+02  4.28818e+00  4.29334e+00  1.09298e-02  9.01427e+01  7.12215e+02  3.55415e-14 -4.12443e+05  3.35515e+03  0.00000e+00 -4.09087e+05  3.13920e+06  2.73011e+06  1.09404e-02  1.00000e+00 -8.98910e+01  0.00000e+00  3.50274e-01 
 4.69084e-03  1.08931e-03  0.00000e+00  3.47944e+00  6.04169e-05  3.59181e+02  3.60049e+02  4.28635e+00  4.29393e+00  1.27125e-02  7.51484e+01  5.76898e+02  1.99666e-07 -3.38503e+05  2.72272e+03  0.00000e+00 -3.35780e+05  1.82332e+06  1.48754e+06  1.27218e-02  1.00000e+00 -7.49363e+01  0.00000e+00  3.61225e-01 
 4.75174e-03  1.32727e-03  1.05001e-20  3.47944e+00  7.12489e-05  3.59193e+02  3.60049e+02  4.28388e+00  4.29378e+00  1.47719e-02  6.76815e+01  4.89192e+02  1.26011e-03 -3.00548e+05  2.31050e+03  0.00000e+00 -2.98238e+05  1.19863e+06  9.00396e+05  1.47812e-02  1.00000e+00 -6.74878e+01  0.00000e+00  3.75192e-01 
 4.82366e-03  1.56534e-03  0.00000e+00  3.47944e+00  8.13859e-05  3.59209e+02  3.60049e+02  4.28079e+00  4.29287e+00  1.71908e-02  6.40368e+01  4.28260e+02  2.86491e-01 -2.82679e+05  2.02459e+03  0.00000e+00 -2.80654e+05  8.53267e+05  5.72613e+05  1.72005e-02  1.00000e+00 -6.38501e+01  0.00000e+00  3.92441e-01 
 4.90611e-03  1.80349e-03  8.81027e-21  3.47944e+00  9.10637e-05  3.59228e+02  3.60049e+02  4.27704e+00  4.29122e+00  2.00088e-02  6.23310e+01  3.82747e+02  1.13332e+01 -2.75963e+05  1.81073e+03  0.00000e+00 -2.74141e+05  6.37786e+05  3.63644e+05  2.00188e-02  1.00000e+00 -6.21452e+01  0.00000e+00  4.13420e-01 
 4.99859e-03  2.04170e-03  0.00000e+00  3.47944e+00  1.00453e-04  3.59250e+02  3.60049e+02  4.27259e+00  4.28880e+00  2.32838e-02  6.18063e+01  3.46971e+02  1.59507e+02 -2.76543e+05  1.64237e+03  0.00000e+00 -2.74741e+05  4.92687e+05  2.17945e+05  2.32940e-02  1.00000e+00 -6.16170e+01  0.00000e+00  4.38755e-01 
 5.10055e-03  2.27996e-03  7.58893e-21  3.47944e+00  1.09590e-04  3.59276e+02  3.60049e+02  4.26741e+00  4.28556e+00  2.70787e-02  6.20976e+01  3.18044e+02  1.13873e+03 -2.82858e+05  1.50596e+03  0.00000e+00 -2.80213e+05  3.90155e+05  1.09942e+05  2.70890e-02  1.00000e+00 -6.19012e+01  0.00000e+00  4.69122e-01 
 5.21143e-03  2.51826e-03  7.09702e-21  3.47944e+00  1.18378e-04  3.59305e+02  3.60049e+02  4.26143e+00  4.28140e+00  3.14628e-02  6.30676e+01  2.94432e+02  5.03076e+03 -2.94651e+05  1.39437e+03  0.00000e+00 -2.88226e+05  3.15698e+05  2.74722e+04  3.14745e-02  1.00000e+00 -6.28606e+01  0.00000e+00  5.05369e-01 
 5.33068e-03  2.75659e-03  1.33300e-20  3.47944e+00  1.26625e-04  3.59337e+02  3.60049e+02  4.25464e+00  4.27626e+00  3.65223e-02  6.47001e+01  2.75256e+02  1.56028e+04 -3.12535e+05  1.30345e+03  0.00000e+00 -2.95629e+05  2.60805e+05 -3.48245e+04  3.65362e-02  1.00000e+00 -6.44786e+01  0.00000e+00  5.48555e-01 
 5.45775e-03  2.99495e-03  1.25651e-20  3.47944e+00  1.34097e-04  3.59371e+02  3.60049e+02  4.24693e+00  4.26998e+00  4.23411e-02  6.70123e+01  2.59919e+02  3.71430e+04 -3.37554e+05  1.23043e+03  0.00000e+00 -2.99181e+05  2.19995e+05 -7.91855e+04  4.23566e-02  1.00000e+00 -6.67716e+01  0.00000e+00  5.99920e-01 
 5.59212e-03  3.23333e-03  0.00000e+00  3.47944e+00  1.40605e-04  3.59408e+02  3.60049e+02  4.23820e+00  4.26241e+00  4.90114e-02  7.00113e+01  2.47889e+02  7.26985e+04 -3.71072e+05  1.17282e+03  0.00000e+00 -2.97200e+05  1.89346e+05 -1.07855e+05  4.90276e-02  1.00000e+00 -6.97460e+01  0.00000e+00  6.60872e-01 
 5.73326e-03  3.47172e-03  0.00000e+00  3.47944e+00  1.46074e-04  3.59446e+02  3.60049e+02  4.22831e+00  4.25344e+00  5.66209e-02  7.36514e+01  2.38608e+02  1.23496e+05 -4.14490e+05  1.12802e+03  0.00000e+00 -2.89866e+05  1.65936e+05 -1.23930e+05  5.66382e-02  1.00000e+00 -7.33551e+01  0.00000e+00  7.33117e-01 
 5.88069e-03  3.71014e-03 -5.35987e-21  3.47944e+00  1.50559e-04  3.59487e+02  3.60049e+02  4.21715e+00  4.24294e+00  6.52606e-02  7.75414e+01  2.31500e+02  1.89721e+05 -4.69182e+05  1.09321e+03  0.00000e+00 -2.78368e+05  1.47021e+05 -1.31348e+05  6.52798e-02  1.00000e+00 -7.72080e+01  0.00000e+00  8.18706e-01 
 6.03395e-03  3.94857e-03  5.10973e-21  3.47944e+00  1.54210e-04  3.59528e+02  3.60049e+02  4.20454e+00  4.23081e+00  7.50216e-02  8.10136e+01  2.26020e+02  2.71393e+05 -5.36456e+05  1.06575e+03  0.00000e+00 -2.63998e+05  1.30417e+05 -1.33581e+05  7.50426e-02  1.00000e+00 -8.06389e+01  0.00000e+00  9.20083e-01 
 6.19261e-03  4.18701e-03  0.00000e+00  3.47944e+00  1.57194e-04  3.59570e+02  3.60049e+02  4.19028e+00  4.21687e+00  8.59592e-02  8.43580e+01  2.21729e+02  3.68566e+05 -6.17477e+05  1.04346e+03  0.00000e+00 -2.47867e+05  1.16229e+05 -1.31638e+05  8.59824e-02  1.00000e+00 -8.39355e+01  0.00000e+00  1.04011e+00 
 6.35626e-03  4.42546e-03  0.00000e+00  3.47944e+00  1.59702e-04  3.59612e+02  3.60049e+02  4.17415e+00  4.20086e+00  9.81032e-02  8.72770e+01  2.18247e+02  4.81114e+05 -7.13038e+05  1.02464e+03  0.00000e+00 -2.30899e+05  1.03666e+05 -1.27234e+05  9.81281e-02  1.00000e+00 -8.68002e+01  0.00000e+00  1.18177e+00 
 6.52453e-03  4.66392e-03 -8.96437e-21  3.47944e+00  1.61918e-04  3.59653e+02  3.60049e+02  4.15589e+00  4.18262e+00  1.11432e-01  8.94584e+01  2.15261e+02  6.09151e+05 -8.23490e+05  1.00744e+03  0.00000e+00 -2.13332e+05  9.22185e+04 -1.21113e+05  1.11459e-01  1.00000e+00 -8.89215e+01  0.00000e+00  1.34924e+00 
 6.69707e-03  4.90238e-03  1.72236e-20  3.47944e+00  1.64011e-04  3.59694e+02  3.60049e+02  4.13521e+00  4.16184e+00  1.25844e-01  9.06008e+01  2.12514e+02  7.51409e+05 -9.48003e+05  9.91146e+02  0.00000e+00 -1.95603e+05  8.15936e+04 -1.14010e+05  1.25874e-01  1.00000e+00 -8.99990e+01  0.00000e+00  1.54608e+00 
 6.87356e-03  5.14086e-03  8.28595e-21  3.47944e+00  1.66127e-04  3.59733e+02  3.60049e+02  4.11176e+00  4.13822e+00  1.41256e-01  9.04656e+01  2.09807e+02  9.06350e+05 -1.08549e+06  9.74348e+02  0.00000e+00 -1.78170e+05  7.16055e+04 -1.06565e+05  1.41285e-01  1.00000e+00 -8.97955e+01  0.00000e+00  1.77719e+00 
 7.05370e-03  5.37934e-03 -1.59677e-20  3.47944e+00  1.68385e-04  3.59770e+02  3.60049e+02  4.08514e+00  4.11139e+00  1.57549e-01  8.89595e+01  2.06994e+02  1.07155e+06 -1.23419e+06  9.56559e+02  0.00000e+00 -1.61688e+05  6.22287e+04 -9.94596e+04  1.57579e-01  1.00000e+00 -8.82191e+01  0.00000e+00  2.04814e+00 
 7.23722e-03  5.61783e-03  0.00000e+00  3.47944e+00  1.70865e-04  3.59805e+02  3.60049e+02  4.05499e+00  4.08102e+00  1.74548e-01  8.60091e+01  2.03990e+02  1.24367e+06 -1.39148e+06  9.36961e+02  0.00000e+00 -1.46871e+05  5.34586e+04 -9.34126e+04  1.74580e-01  1.00000e+00 -8.51982e+01  0.00000e+00  2.36500e+00 
 7.42387e-03  5.85632e-03  0.00000e+00  3.47944e+00  1.73603e-04  3.59838e+02  3.60049e+02  4.02094e+00  4.04674e+00  1.91955e-01  8.16587e+01  2.00773e+02  1.41841e+06 -1.55341e+06  9.15847e+02  0.00000e+00 -1.34082e+05  4.53634e+04 -8.87186e+04  1.91988e-01  1.00000e+00 -8.07793e+01  0.00000e+00  2.73320e+00 
 7.61342e-03  6.09482e-03  0.00000e+00  3.47944e+00  1.76579e-04  3.59868e+02  3.60049e+02  3.98265e+00  4.00822e+00  2.09501e-01  7.60588e+01  1.97390e+02  1.59263e+06 -1.71702e+06  8.92926e+02  0.00000e+00 -1.23501e+05  3.79987e+04 -8.55027e+04  2.09535e-01  1.00000e+00 -7.51146e+01  0.00000e+00  3.16040e+00 
 7.80566e-03  6.33332e-03  0.00000e+00  3.47944e+00  1.79727e-04  3.59896e+02  3.60049e+02  3.93983e+00  3.96517e+00  2.26880e-01  6.94661e+01  1.93933e+02  1.76327e+06 -1.87942e+06  8.69033e+02  0.00000e+00 -1.15281e+05  3.14202e+04 -8.38608e+04  2.26918e-01  1.00000e+00 -6.84615e+01  0.00000e+00  3.65336e+00 
 8.00039e-03  6.57182e-03  0.00000e+00  3.47944e+00  1.82913e-04  3.59922e+02  3.60049e+02  3.89225e+00  3.91733e+00  2.43924e-01  6.21756e+01  1.90556e+02  1.93023e+06 -2.04095e+06  8.44539e+02  0.00000e+00 -1.09876e+05  2.56349e+04 -8.42410e+04  2.43962e-01  1.00000e+00 -6.11152e+01  0.00000e+00  4.22394e+00 
 8.19744e-03  6.81033e-03  1.31016e-20  3.47944e+00  1.85969e-04  3.59946e+02  3.60049e+02  3.83964e+00  3.86444e+00  2.60406e-01  5.44646e+01  1.87426e+02  2.09451e+06 -2.20260e+06  8.20469e+02  0.00000e+00 -1.07267e+05  2.06182e+04 -8.66486e+04  2.60445e-01  1.00000e+00 -5.33522e+01  0.00000e+00  4.88446e+00 
 8.39664e-03  7.04884e-03  0.00000e+00  3.47944e+00  1.88650e-04  3.59967e+02  3.60049e+02  3.78174e+00  3.80619e+00  2.76250e-01  4.65607e+01  1.84762e+02  2.26138e+06 -2.37004e+06  7.97316e+02  0.00000e+00 -1.07863e+05  1.63034e+04 -9.15599e+04  2.76288e-01  1.00000e+00 -4.53981e+01  0.00000e+00  5.65824e+00 
 8.59784e-03  7.28736e-03  0.00000e+00  3.47944e+00  1.90722e-04  3.59987e+02  3.60050e+02  3.71788e+00  3.74192e+00  2.91373e-01  3.85834e+01  1.82756e+02  2.43668e+06 -2.54973e+06  7.76146e+02  0.00000e+00 -1.12276e+05  1.25858e+04 -9.96906e+04  2.91412e-01  1.00000e+00 -3.73701e+01  0.00000e+00  6.57142e+00 
 8.80092e-03  7.52587e-03  0.00000e+00  3.47944e+00  1.91852e-04  3.60006e+02  3.60050e+02  3.64761e+00  3.67109e+00  3.05801e-01  3.05508e+01  1.81681e+02  2.63340e+06 -2.75519e+06  7.57342e+02  0.00000e+00 -1.21026e+05  9.34151e+03 -1.11684e+05  3.05839e-01  1.00000e+00 -2.92824e+01  0.00000e+00  7.67768e+00 
 9.00573e-03  7.76439e-03 -1.17014e-20  3.47944e+00  1.91768e-04  3.60023e+02  3.60050e+02  3.56882e+00  3.59159e+00  3.19568e-01  2.22933e+01  1.81761e+02  2.86441e+06 -3.00115e+06  7.41834e+02  0.00000e+00 -1.35991e+05  6.40179e+03 -1.29589e+05  3.19609e-01  1.00000e+00 -2.09615e+01  0.00000e+00  9.03998e+00 
 9.21216e-03  8.00291e-03  0.00000e+00  3.47944e+00  1.90061e-04  3.60041e+02  3.60050e+02  3.48162e+00  3.50346e+00  3.32871e-01  1.34473e+01  1.83395e+02  3.15713e+06 -3.31753e+06  7.30077e+02  0.00000e+00 -1.59670e+05  3.56104e+03 -1.56109e+05  3.32912e-01  1.00000e+00 -1.20370e+01  0.00000e+00  1.07954e+01 
 9.42012e-03  8.24144e-03  0.00000e+00  3.47944e+00  1.86404e-04  3.60058e+02  3.60051e+02  3.37904e+00  3.39979e+00  3.45784e-01  3.19905e+00  1.86994e+02  3.54423e+06 -3.74151e+06  7.22113e+02  0.00000e+00 -1.96557e+05  4.90244e+02 -1.96067e+05  3.45835e-01  1.00000e+00 -1.68833e+00  0.00000e+00  1.31295e+01 
 9.62949e-03  8.47996e-03  0.00000e+00  3.47944e+00  1.80229e-04  3.60077e+02  3.60051e+02  3.26334e+00  3.28238e+00  3.58487e-01 -2.22535e+01  1.93401e+02  4.10215e+06 -4.35308e+06  7.20145e+02  0.00000e+00 -2.50208e+05 -7.41225e+03 -2.57621e+05  3.58544e-01  1.00000e+00  2.55886e+01  0.00000e+00  1.64838e+01 
 9.84019e-03  8.71849e-03  0.00000e+00  3.47944e+00  1.70938e-04  3.60102e+02  3.60052e+02  3.11208e+00  3.12945e+00  3.71009e-01 -6.89316e+01  2.03916e+02  4.94680e+06 -5.28747e+06  7.24245e+02  0.00000e+00 -3.39946e+05 -2.14294e+04 -3.61375e+05  3.71070e-01  1.00000e+00  7.26143e+01  0.00000e+00  2.15377e+01 
 1.00521e-02  8.95702e-03  0.00000e+00  3.47944e+00  1.57314e-04  3.60145e+02  3.60052e+02  2.93744e+00  2.95298e+00  3.83465e-01 -1.68177e+02  2.21577e+02  6.45539e+06 -6.91874e+06  7.37771e+02  0.00000e+00 -4.62620e+05 -5.34847e+04 -5.16104e+05  3.83532e-01  1.00000e+00  1.72387e+02  0.00000e+00  3.06920e+01 
 1.02653e-02  9.19555e-03  0.00000e+00  3.47944e+00  1.38866e-04  3.60244e+02  3.60053e+02  2.66587e+00  2.67960e+00  3.96405e-01 -4.64750e+02  2.51016e+02  9.55518e+06 -1.01117e+07  7.50959e+02  0.00000e+00 -5.55728e+05 -1.59732e+05 -7.15461e+05  3.96483e-01  1.00000e+00  4.69786e+02  0.00000e+00  5.10148e+01 
 1.04795e-02  9.43408e-03  0.00000e+00  3.47944e+00  1.16423e-04  3.60625e+02  3.60054e+02  2.23063e+00  2.23906e+00  4.13296e-01 -5.15495e+03  2.99409e+02  1.82667e+07 -1.74772e+07  7.81577e+02  2.66126e+06  3.45158e+06 -3.55095e+06 -9.93682e+04  4.13358e-01  1.00000e+00  5.16131e+03  3.19582e+03  1.28803e+02 
