# Code_Saturne plot output (1D profile)
#
# Iteration output: 1026
# Time output:      2.30007e+01
#
#COLUMN_TITLES: Distance | X | Y | Z | diameter_Field2 | temp_Field1 | temp_Field2 | Velocity_Field1[Z] | Velocity_Field2[Z] | vol_f_Field2 | mass_trans_Field1 | Xd_Field2 | BK | COAL | COMP | NUCL | W1 | MT | SMBR | ALPBB | CONDNUM | GAMA | GAMANUC | epsilon_Field1
 4.56474e-03  1.39645e-04  0.00000e+00  3.47944e+00  1.00000e-05  3.54062e+02  3.60058e+02  3.47173e+00  3.47212e+00  1.43102e-16  9.06724e-10  3.48545e+03  0.00000e+00 -4.17891e-06  1.08510e+04  0.00000e+00  1.08510e+04  1.63925e+00 -2.63988e+04  5.92259e-15  5.92259e-09 -9.06724e-10  0.00000e+00  1.95875e-01 
 4.57812e-03  3.76525e-04  4.25872e-21  3.47944e+00  1.00000e-05  3.54068e+02  3.60058e+02  3.47128e+00  3.47167e+00  4.02901e-16  8.37795e-10  3.48545e+03  0.00000e+00 -4.19860e-06  7.94992e+03  0.00000e+00  7.94992e+03  1.51463e+00 -2.63253e+04  5.93252e-15  5.93252e-09 -8.37795e-10  0.00000e+00  1.97682e-01 
 4.60371e-03  6.13858e-04  0.00000e+00  3.47944e+00  1.00000e-05  3.54080e+02  3.60058e+02  3.46985e+00  3.47024e+00  3.95330e-16  8.39801e-10  3.48545e+03  0.00000e+00 -4.23264e-06  7.98727e+03  0.00000e+00  7.98727e+03  1.51826e+00 -2.62267e+04  5.94537e-15  5.94537e-09 -8.39801e-10  0.00000e+00  2.01262e-01 
 4.64138e-03  8.51483e-04  0.00000e+00  3.47944e+00  1.00000e-05  3.54098e+02  3.60058e+02  3.46775e+00  3.46815e+00  1.24811e-16  9.08705e-10  3.48545e+03  0.00000e+00 -4.26628e-06  1.08441e+04  0.00000e+00  1.08441e+04  1.64283e+00 -2.62691e+04  5.94058e-15  5.94058e-09 -9.08705e-10  0.00000e+00  2.06661e-01 
 4.69084e-03  1.08931e-03  0.00000e+00  3.47944e+00  1.00000e-05  3.54121e+02  3.60058e+02  3.46494e+00  3.46533e+00  1.23414e-16  9.04214e-10  3.48545e+03  0.00000e+00 -4.30462e-06  1.08320e+04  0.00000e+00  1.08320e+04  1.63471e+00 -2.63809e+04  5.92581e-15  5.92581e-09 -9.04214e-10  0.00000e+00  2.13963e-01 
 4.75174e-03  1.32727e-03  1.05001e-20  3.47944e+00  1.00000e-05  3.54151e+02  3.60058e+02  3.46141e+00  3.46180e+00  1.42657e-16  8.97413e-10  3.48546e+03  0.00000e+00 -4.34788e-06  1.08217e+04  0.00000e+00  1.08217e+04  1.62242e+00 -2.65575e+04  5.90199e-15  5.90199e-09 -8.97413e-10  0.00000e+00  2.23271e-01 
 4.82366e-03  1.56534e-03  0.00000e+00  3.47944e+00  1.00000e-05  3.54186e+02  3.60058e+02  3.45715e+00  3.45754e+00  1.65180e-16  8.90125e-10  3.48546e+03  0.00000e+00 -4.40181e-06  1.08101e+04  0.00000e+00  1.08101e+04  1.60924e+00 -2.67418e+04  5.87769e-15  5.87769e-09 -8.90125e-10  0.00000e+00  2.34710e-01 
 4.90611e-03  1.80349e-03  8.81027e-21  3.47944e+00  1.00000e-05  3.54228e+02  3.60058e+02  3.45213e+00  3.45252e+00  1.79766e-16  8.83134e-10  3.48546e+03  0.00000e+00 -4.46894e-06  1.07968e+04  0.00000e+00  1.07968e+04  1.59660e+00 -2.69039e+04  5.85668e-15  5.85668e-09 -8.83134e-10  0.00000e+00  2.48438e-01 
 4.99859e-03  2.04170e-03  0.00000e+00  3.47944e+00  1.00000e-05  3.54275e+02  3.60058e+02  3.44635e+00  3.44674e+00  1.48450e-16  8.72721e-10  3.48546e+03  0.00000e+00 -4.53594e-06  7.83814e+03  0.00000e+00  7.83814e+03  1.57778e+00 -2.71770e+04  5.82220e-15  5.82220e-09 -8.72721e-10  0.00000e+00  2.64634e-01 
 5.10055e-03  2.27996e-03  7.58893e-21  3.47944e+00  1.00000e-05  3.54329e+02  3.60058e+02  3.43973e+00  3.44012e+00  1.64351e-16  8.57736e-10  3.48546e+03  0.00000e+00 -4.59690e-06  4.21457e+03  0.00000e+00  4.21457e+03  1.55069e+00 -2.75886e+04  5.76824e-15  5.76824e-09 -8.57736e-10  0.00000e+00  2.83499e-01 
 5.21143e-03  2.51826e-03  7.09702e-21  3.47944e+00  1.00000e-05  3.54388e+02  3.60058e+02  3.43230e+00  3.43269e+00  1.88540e-16  8.32723e-10  3.48546e+03  0.00000e+00 -4.62043e-06  2.36801e+03  0.00000e+00  2.36801e+03  1.50547e+00 -2.84488e+04  5.65830e-15  5.65830e-09 -8.32723e-10  0.00000e+00  3.05273e-01 
 5.33068e-03  2.75659e-03  1.33300e-20  3.47944e+00  1.00000e-05  3.54454e+02  3.60058e+02  3.42392e+00  3.42431e+00  1.80239e-16  7.92423e-10  3.48546e+03  0.00000e+00 -4.53535e-06  3.55711e+03  0.00000e+00  3.55711e+03  1.43261e+00 -3.06142e+04  5.41250e-15  5.41250e-09 -7.92423e-10  0.00000e+00  3.30212e-01 
 5.45775e-03  2.99495e-03  1.25651e-20  3.47944e+00  1.00000e-05  3.54526e+02  3.60058e+02  3.41469e+00  3.41508e+00  2.26721e-16  7.29029e-10  3.48546e+03  0.00000e+00 -4.34149e-06  5.38311e+03  0.00000e+00  5.38311e+03  1.31800e+00 -3.40746e+04  5.04254e-15  5.04254e-09 -7.29029e-10  0.00000e+00  3.58600e-01 
 5.59212e-03  3.23333e-03  0.00000e+00  3.47944e+00  1.00000e-05  3.54605e+02  3.60058e+02  3.40433e+00  3.40471e+00  2.75562e-16  6.34797e-10  3.48547e+03  0.00000e+00 -3.94071e-06  5.90948e+03  0.00000e+00  5.90948e+03  1.14764e+00 -4.06730e+04  4.44966e-15  4.44966e-09 -6.34797e-10  0.00000e+00  3.90752e-01 
 5.73326e-03  3.47172e-03  0.00000e+00  3.47944e+00  1.00000e-05  3.54689e+02  3.60058e+02  3.39313e+00  3.39351e+00  2.76854e-16  5.64457e-10  3.48547e+03 6.07626e-265 -3.61582e-06  7.53449e+03  0.00000e+00  7.53449e+03  1.02048e+00 -4.76068e+04  3.96539e-15  3.96539e-09 -5.64457e-10  0.00000e+00  4.27042e-01 
 5.88069e-03  3.71014e-03 -5.35987e-21  3.47944e+00  1.00000e-05  3.54780e+02  3.60058e+02  3.38057e+00  3.38095e+00  3.33748e-16  4.51465e-10  3.48547e+03 8.14400e-249 -3.06063e-06  4.67235e+03  0.00000e+00  4.67235e+03  8.16199e-01 -6.07611e+04  3.25737e-15  3.25737e-09 -4.51465e-10  0.00000e+00  4.67860e-01 
 6.03395e-03  3.94857e-03  5.10973e-21  3.47944e+00  1.00000e-05  3.54877e+02  3.60058e+02  3.36715e+00  3.36753e+00  1.18116e-15  2.26669e-10  3.48547e+03 2.68619e-233 -1.75089e-06  9.98586e+03  0.00000e+00  9.98586e+03  4.09793e-01 -1.41196e+05  1.80715e-15  1.80715e-09 -2.26669e-10  0.00000e+00  5.13670e-01 
 6.19261e-03  4.18701e-03  0.00000e+00  3.47944e+00  1.00000e-05  3.54981e+02  3.60059e+02  3.35220e+00  3.35258e+00  8.76699e-15  1.98689e-09  3.48548e+03 1.93490e-218 -1.33346e-05  9.18939e+03  0.00000e+00  9.18939e+03  3.59208e+00 -1.91188e+04  1.33396e-14  1.33396e-08 -1.98689e-09  0.00000e+00  5.64991e-01 
 6.35626e-03  4.42546e-03  0.00000e+00  3.47944e+00  1.00000e-05  3.55091e+02  3.60059e+02  3.33633e+00  3.33665e+00  8.16072e-14  1.87939e-08  3.48548e+03 2.89065e-204 -1.26784e-04  8.99002e+03  0.00000e+00  8.99002e+03  3.39775e+01 -2.05821e+03  1.22865e-13  1.22865e-07 -1.87939e-08  0.00000e+00  6.22446e-01 
 6.52453e-03  4.66392e-03 -8.96437e-21  3.47944e+00  1.00000e-05  3.55208e+02  3.60058e+02  3.31874e+00  3.31902e+00  7.94800e-13  1.75028e-07  3.48547e+03 8.81146e-191 -1.22478e-03  9.36098e+03  0.00000e+00  9.36097e+03  3.16431e+02 -2.11233e+02  1.14926e-12  1.14926e-06 -1.75028e-07  0.00000e+00  6.86745e-01 
 6.69707e-03  4.90238e-03  1.72236e-20  3.47944e+00  1.00000e-05  3.55331e+02  3.60058e+02  3.30006e+00  3.30028e+00  8.05779e-12  1.68297e-06  3.48544e+03 5.61272e-178 -1.23303e-02  9.26387e+03  0.00000e+00  9.26386e+03  3.04259e+03 -1.81496e+01  1.11980e-11  1.11980e-05 -1.68297e-06  0.00000e+00  7.58751e-01 
 6.87356e-03  5.14086e-03  8.28595e-21  3.47944e+00  1.00000e-05  3.55462e+02  3.60057e+02  3.27972e+00  3.27992e+00  8.01288e-11  1.60746e-05  3.48542e+03 8.03305e-166 -1.22569e-01  9.03933e+03  0.00000e+00  9.03921e+03  2.90608e+04  3.81000e+04  1.07683e-10  1.07683e-04 -1.60747e-05  0.00000e+00  8.39549e-01 
 7.05370e-03  5.37934e-03 -1.59677e-20  3.47944e+00  1.00000e-05  3.55600e+02  3.60057e+02  3.25772e+00  3.25791e+00  7.58401e-10  1.52900e-04  3.48541e+03 2.71311e-154 -1.18025e+00  8.68940e+03  0.00000e+00  8.68822e+03  2.76423e+05  2.85111e+05  1.00262e-09  1.00262e-03 -1.52901e-04  0.00000e+00  9.30353e-01 
 7.23722e-03  5.61783e-03  0.00000e+00  3.47944e+00  1.00000e-05  3.55746e+02  3.60057e+02  3.23430e+00  3.23448e+00  7.19312e-09  1.36916e-03  3.48540e+03 2.41889e-143 -1.10162e+01  8.67315e+03  0.00000e+00  8.66214e+03  2.47527e+06  2.48393e+06  9.04345e-09  9.04345e-03 -1.36917e-03  0.00000e+00  1.03284e+00 
 7.42387e-03  5.85632e-03  0.00000e+00  3.47944e+00  1.00000e-05  3.55900e+02  3.60057e+02  3.20866e+00  3.20883e+00  6.62337e-08  1.17014e-02  3.48540e+03 6.16541e-133 -9.82748e+01  8.50704e+03  0.00000e+00  8.40877e+03  2.11545e+07  2.11629e+07  7.79131e-08  7.79131e-02 -1.17014e-02  0.00000e+00  1.14891e+00 
 7.61342e-03  6.09482e-03  0.00000e+00  3.47944e+00  1.00000e-05  3.56063e+02  3.60057e+02  3.18148e+00  3.18164e+00  5.90943e-07  9.97463e-02  3.48540e+03 5.06836e-123 -8.76094e+02  8.45374e+03  0.00000e+00  7.57764e+03  1.80328e+08  1.80336e+08  6.70252e-07  6.70252e-01 -9.97471e-02  0.00000e+00  1.28122e+00 
 7.80566e-03  6.33332e-03  0.00000e+00  3.47944e+00  1.00000e-05  3.56236e+02  3.60057e+02  3.15181e+00  3.15196e+00  5.03332e-06  8.48526e-01  3.48540e+03 1.51743e-113 -7.57900e+03  8.08319e+03  0.00000e+00  5.04194e+02  2.74438e+08  2.74439e+08  5.58969e-06  1.00000e+00 -8.48533e-01  0.00000e+00  1.43320e+00 
 8.00039e-03  6.57182e-03  0.00000e+00  3.47944e+00  1.00000e-05  3.56419e+02  3.60057e+02  3.12021e+00  3.12034e+00  4.24675e-05  6.67090e+00  3.48541e+03 1.84869e-104 -6.28549e+04  8.04695e+03  0.00000e+00 -5.48080e+04  2.70196e+08  2.70142e+08  4.46348e-05  1.00000e+00 -6.67095e+00  0.00000e+00  1.60932e+00 
 8.19744e-03  6.81033e-03  1.31016e-20  3.47944e+00  1.33111e-05  3.56614e+02  3.60057e+02  3.08588e+00  3.08608e+00  2.40922e-04  3.76289e+01  2.61844e+03  4.93601e-56 -2.25047e+05  6.17094e+03  0.00000e+00 -2.18876e+05  2.06838e+08  2.06619e+08  2.47750e-04  1.00000e+00 -3.76292e+01  0.00000e+00  1.81630e+00 
 8.39664e-03  7.04884e-03  0.00000e+00  3.47944e+00  2.38542e-05  3.56821e+02  3.60057e+02  3.04890e+00  3.04973e+00  7.95131e-04  9.64384e+01  1.46114e+03  6.29160e-14 -2.82874e+05  3.71614e+03  0.00000e+00 -2.79158e+05  9.24135e+07  9.21344e+07  7.96680e-04  1.00000e+00 -9.64393e+01  0.00000e+00  2.06305e+00 
 8.59784e-03  7.28736e-03  0.00000e+00  3.47944e+00  3.74083e-05  3.57032e+02  3.60057e+02  3.00855e+00  3.01076e+00  2.02631e-03  1.15103e+02  9.31727e+02  1.78512e-01 -3.46051e+05  2.38947e+03  0.00000e+00 -3.43661e+05  2.74534e+07  2.71097e+07  2.02930e-03  1.00000e+00 -1.15104e+02  0.00000e+00  2.36410e+00 
 8.80092e-03  7.52587e-03  0.00000e+00  3.47944e+00  4.90669e-05  3.57257e+02  3.60057e+02  2.96379e+00  2.96743e+00  4.15785e-03  1.38864e+02  7.10344e+02  8.58940e+02 -4.65963e+05  1.81038e+03  0.00000e+00 -4.63294e+05  1.22944e+07  1.18311e+07  4.16149e-03  1.00000e+00 -1.38865e+02  0.00000e+00  2.74114e+00 
 9.00573e-03  7.76439e-03 -1.17014e-20  3.47944e+00  5.99329e-05  3.57496e+02  3.60058e+02  2.91434e+00  2.91925e+00  7.82932e-03  1.77053e+02  5.81558e+02  3.75215e+04 -6.54624e+05  1.46447e+03  0.00000e+00 -6.15638e+05  6.81577e+06  6.20013e+06  7.83416e-03  1.00000e+00 -1.77055e+02  0.00000e+00  3.23059e+00 
 9.21216e-03  8.00291e-03  0.00000e+00  3.47944e+00  7.07410e-05  3.57751e+02  3.60058e+02  2.85584e+00  2.86201e+00  1.37638e-02  2.23502e+02  4.92706e+02  2.79464e+05 -9.15772e+05  1.22147e+03  0.00000e+00 -6.35086e+05  4.14685e+06  3.51176e+06  1.37709e-02  1.00000e+00 -2.23505e+02  0.00000e+00  3.88432e+00 
 9.42012e-03  8.24144e-03  0.00000e+00  3.47944e+00  8.13494e-05  3.58025e+02  3.60058e+02  2.79082e+00  2.79799e+00  2.30993e-02  2.78955e+02  4.28456e+02  8.67199e+05 -1.28915e+06  1.03681e+03  0.00000e+00 -4.20915e+05  2.68203e+06  2.26111e+06  2.31099e-02  1.00000e+00 -2.78959e+02  0.00000e+00  4.80347e+00 
 9.62949e-03  8.47996e-03  0.00000e+00  3.47944e+00  9.25365e-05  3.58320e+02  3.60058e+02  2.70540e+00  2.71381e+00  3.73285e-02  3.35302e+02  3.76659e+02  1.71738e+06 -1.79680e+06  8.86039e+02  0.00000e+00 -7.85271e+04  1.75389e+06  1.67536e+06  3.73429e-02  1.00000e+00 -3.35308e+02  0.00000e+00  6.14858e+00 
 9.84019e-03  8.71849e-03  0.00000e+00  3.47944e+00  1.05898e-04  3.58644e+02  3.60058e+02  2.60864e+00  2.61835e+00  5.83457e-02  3.73627e+02  3.29135e+02  2.65289e+06 -2.42923e+06  7.43090e+02  0.00000e+00  2.24401e+05  1.09266e+06  1.31706e+06  5.83641e-02  1.00000e+00 -3.73635e+02  0.00000e+00  8.30809e+00 
 1.00521e-02  8.95702e-03  0.00000e+00  3.47944e+00  1.23520e-04  3.59010e+02  3.60059e+02  2.46059e+00  2.47269e+00  8.70730e-02  3.43661e+02  2.82182e+02  3.47043e+06 -3.07660e+06  6.01596e+02  0.00000e+00  3.94430e+05  5.77464e+05  9.71894e+05  8.70877e-02  1.00000e+00 -3.43671e+02  0.00000e+00  1.21120e+01 
 1.02653e-02  9.19555e-03  0.00000e+00  3.47944e+00  1.46323e-04  3.59473e+02  3.60059e+02  2.27609e+00  2.28819e+00  1.22084e-01  2.16613e+02  2.38208e+02  4.20763e+06 -3.63146e+06  4.61319e+02  0.00000e+00  5.76635e+05  2.19151e+05  7.95786e+05  1.22110e-01  1.00000e+00 -2.16624e+02  0.00000e+00  2.08431e+01 
 1.04795e-02  9.43408e-03  0.00000e+00  3.47944e+00  1.80462e-04  3.60259e+02  3.60060e+02  1.90591e+00  1.91979e+00  1.59098e-01 -2.50169e+03  1.93146e+02  5.06493e+06 -3.54486e+06  3.34935e+02  1.88902e+06  3.40942e+06 -3.47727e+06 -6.78494e+04  1.59012e-01  1.00000e+00  2.50167e+03  2.34715e+03  5.32206e+01 
