# Code_Saturne plot output (1D profile)
#
# Iteration output: 4799
# Time output:      2.30004e+01
#
#COLUMN_TITLES: Distance | X | Y | Z | diameter_Field2 | temp_Field1 | temp_Field2 | Velocity_Field1[Z] | Velocity_Field2[Z] | vol_f_Field2 | mass_trans_Field1 | Xd_Field2 | BK | COAL | COMP | NUCL | W1 | MT | SMBR | ALPBB | CONDNUM | GAMA | GAMANUC | epsilon_Field1
 4.56474e-03  1.39645e-04  0.00000e+00  3.47944e+00  3.32799e-04  3.60013e+02  3.60057e+02  5.29872e+00  5.37637e+00  2.31424e-01  9.87447e+00  1.04679e+02  5.71326e+05 -8.14001e+05  7.98773e+02  0.00000e+00 -2.41877e+05  1.72940e+03 -2.40148e+05  2.31423e-01  1.00000e+00 -9.86436e+00  0.00000e+00  1.14196e+00 
 4.57812e-03  3.76525e-04  4.25872e-21  3.47944e+00  3.40297e-04  3.60013e+02  3.60057e+02  5.29753e+00  5.37727e+00  2.32466e-01  9.57086e+00  1.02373e+02  5.67353e+05 -7.87793e+05  7.81170e+02  0.00000e+00 -2.19660e+05  1.63193e+03 -2.18028e+05  2.32465e-01  1.00000e+00 -9.56099e+00  0.00000e+00  1.15502e+00 
 4.60371e-03  6.13858e-04  0.00000e+00  3.47944e+00  3.45209e-04  3.60014e+02  3.60057e+02  5.29493e+00  5.37576e+00  2.34152e-01  9.34217e+00  1.00916e+02  5.69763e+05 -7.77749e+05  7.70011e+02  0.00000e+00 -2.07216e+05  1.55894e+03 -2.05657e+05  2.34152e-01  1.00000e+00 -9.33240e+00  0.00000e+00  1.18058e+00 
 4.64138e-03  8.51483e-04  0.00000e+00  3.47944e+00  3.49318e-04  3.60015e+02  3.60057e+02  5.29101e+00  5.37254e+00  2.36594e-01  9.11837e+00  9.97294e+01  5.76398e+05 -7.75799e+05  7.60772e+02  0.00000e+00 -1.98641e+05  1.48813e+03 -1.97152e+05  2.36594e-01  1.00000e+00 -9.10863e+00  0.00000e+00  1.21906e+00 
 4.69084e-03  1.08931e-03  0.00000e+00  3.47944e+00  3.53554e-04  3.60017e+02  3.60057e+02  5.28570e+00  5.36779e+00  2.39777e-01  8.86259e+00  9.85345e+01  5.85926e+05 -7.77740e+05  7.51362e+02  0.00000e+00 -1.91063e+05  1.41004e+03 -1.89653e+05  2.39778e-01  1.00000e+00 -8.85286e+00  0.00000e+00  1.27104e+00 
 4.75174e-03  1.32727e-03  1.05001e-20  3.47944e+00  3.58307e-04  3.60019e+02  3.60057e+02  5.27891e+00  5.36154e+00  2.43668e-01  8.55926e+00  9.72273e+01  5.97504e+05 -7.81633e+05  7.40991e+02  0.00000e+00 -1.83388e+05  1.32219e+03 -1.82066e+05  2.43670e-01  1.00000e+00 -8.54951e+00  0.00000e+00  1.33729e+00 
 4.82366e-03  1.56534e-03  0.00000e+00  3.47944e+00  3.63767e-04  3.60021e+02  3.60057e+02  5.27058e+00  5.35379e+00  2.48244e-01  8.20152e+00  9.57679e+01  6.10381e+05 -7.86356e+05  7.29348e+02  0.00000e+00 -1.75245e+05  1.22484e+03 -1.74020e+05  2.48246e-01  1.00000e+00 -8.19175e+00  0.00000e+00  1.41872e+00 
 4.90611e-03  1.80349e-03  8.81027e-21  3.47944e+00  3.70000e-04  3.60024e+02  3.60057e+02  5.26060e+00  5.34447e+00  2.53439e-01  7.78704e+00  9.41548e+01  6.23927e+05 -7.91133e+05  7.16413e+02  0.00000e+00 -1.66489e+05  1.11984e+03 -1.65370e+05  2.53441e-01  1.00000e+00 -7.77725e+00  0.00000e+00  1.51636e+00 
 4.99859e-03  2.04170e-03  0.00000e+00  3.47944e+00  3.77011e-04  3.60027e+02  3.60057e+02  5.24888e+00  5.33347e+00  2.59207e-01  7.31709e+00  9.24038e+01  6.37516e+05 -7.95436e+05  7.02295e+02  0.00000e+00 -1.57218e+05  1.00961e+03 -1.56208e+05  2.59210e-01  1.00000e+00 -7.30730e+00  0.00000e+00  1.63130e+00 
 5.10055e-03  2.27996e-03  7.58893e-21  3.47944e+00  3.84731e-04  3.60031e+02  3.60057e+02  5.23532e+00  5.32071e+00  2.65457e-01  6.79539e+00  9.05498e+01  6.50704e+05 -7.98888e+05  6.87250e+02  0.00000e+00 -1.47496e+05  8.97086e+02 -1.46599e+05  2.65461e-01  1.00000e+00 -6.78559e+00  0.00000e+00  1.76473e+00 
 5.21143e-03  2.51826e-03  7.09702e-21  3.47944e+00  3.93044e-04  3.60035e+02  3.60057e+02  5.21985e+00  5.30609e+00  2.72132e-01  6.22828e+00  8.86347e+01  6.63122e+05 -8.01378e+05  6.71588e+02  0.00000e+00 -1.37584e+05  7.84982e+02 -1.36799e+05  2.72136e-01  1.00000e+00 -6.21847e+00  0.00000e+00  1.91778e+00 
 5.33068e-03  2.75659e-03  1.33300e-20  3.47944e+00  4.01757e-04  3.60039e+02  3.60057e+02  5.20240e+00  5.28951e+00  2.79112e-01  5.62295e+00  8.67125e+01  6.74721e+05 -8.02926e+05  6.55705e+02  0.00000e+00 -1.27549e+05  6.75863e+02 -1.26873e+05  2.79117e-01  1.00000e+00 -5.61314e+00  0.00000e+00  2.09176e+00 
 5.45775e-03  2.99495e-03  1.25651e-20  3.47944e+00  4.10645e-04  3.60043e+02  3.60057e+02  5.18306e+00  5.27098e+00  2.86359e-01  4.98767e+00  8.48358e+01  6.85510e+05 -8.03907e+05  6.39975e+02  0.00000e+00 -1.17757e+05  5.71558e+02 -1.17185e+05  2.86364e-01  1.00000e+00 -4.97786e+00  0.00000e+00  2.28768e+00 
 5.59212e-03  3.23333e-03  0.00000e+00  3.47944e+00  4.19411e-04  3.60047e+02  3.60057e+02  5.16187e+00  5.24990e+00  2.93724e-01  4.32141e+00  8.30628e+01  6.96033e+05 -8.04753e+05  6.24802e+02  0.00000e+00 -1.08096e+05  4.72561e+02 -1.07623e+05  2.93728e-01  1.00000e+00 -4.31162e+00  0.00000e+00  2.50764e+00 
 5.73326e-03  3.47172e-03  0.00000e+00  3.47944e+00  4.27779e-04  3.60051e+02  3.60057e+02  5.13859e+00  5.22618e+00  3.01214e-01  3.64310e+00  8.14380e+01  7.06552e+05 -8.06199e+05  6.10617e+02  0.00000e+00 -9.90358e+04  3.80721e+02 -9.86550e+04  3.01217e-01  1.00000e+00 -3.63329e+00  0.00000e+00  2.75253e+00 
 5.88069e-03  3.71014e-03 -5.35987e-21  3.47944e+00  4.35454e-04  3.60056e+02  3.60057e+02  5.11315e+00  5.19993e+00  3.08764e-01  2.95726e+00  8.00029e+01  7.17685e+05 -8.08969e+05  5.97670e+02  0.00000e+00 -9.06867e+04  2.95992e+02 -9.03907e+04  3.08765e-01  1.00000e+00 -2.94743e+00  0.00000e+00  3.02420e+00 
 6.03395e-03  3.94857e-03  5.10973e-21  3.47944e+00  4.42192e-04  3.60060e+02  3.60057e+02  5.08543e+00  5.17122e+00  3.16369e-01  2.26653e+00  7.87839e+01  7.29957e+05 -8.13825e+05  5.86141e+02  0.00000e+00 -8.32819e+04  2.17805e+02 -8.30641e+04  3.16368e-01  1.00000e+00 -2.25665e+00  0.00000e+00  3.32458e+00 
 6.19261e-03  4.18701e-03  0.00000e+00  3.47944e+00  4.47752e-04  3.60065e+02  3.60057e+02  5.05536e+00  5.14003e+00  3.23923e-01  1.57034e+00  7.78059e+01  7.44168e+05 -8.21402e+05  5.76075e+02  0.00000e+00 -7.66580e+04  1.45264e+02 -7.65127e+04  3.23922e-01  1.00000e+00 -1.56036e+00  0.00000e+00  3.65677e+00 
 6.35626e-03  4.42546e-03  0.00000e+00  3.47944e+00  4.51993e-04  3.60070e+02  3.60058e+02  5.02289e+00  5.10639e+00  3.31411e-01  8.66851e-01  7.70760e+01  7.60716e+05 -8.32255e+05  5.67666e+02  0.00000e+00 -7.09710e+04  7.72260e+01 -7.08938e+04  3.31410e-01  1.00000e+00 -8.56739e-01  0.00000e+00  4.02248e+00 
 6.52453e-03  4.66392e-03 -8.96437e-21  3.47944e+00  4.54787e-04  3.60074e+02  3.60058e+02  4.98796e+00  5.07028e+00  3.38741e-01  1.53309e-01  7.66027e+01  7.80355e+05 -8.46922e+05  5.60868e+02  0.00000e+00 -6.60066e+04  1.25356e+01 -6.59941e+04  3.38740e-01  1.00000e+00 -1.43023e-01  0.00000e+00  4.42596e+00 
 6.69707e-03  4.90238e-03  1.72236e-20  3.47944e+00  4.56137e-04  3.60079e+02  3.60058e+02  4.95048e+00  5.03163e+00  3.45939e-01 -1.39130e+00  7.63762e+01  8.03360e+05 -8.65820e+05  5.55668e+02  0.00000e+00 -6.19046e+04 -1.21057e+02 -6.20256e+04  3.45939e-01  1.00000e+00  1.41472e+00  0.00000e+00  4.87054e+00 
 6.87356e-03  5.14086e-03  8.28595e-21  3.47944e+00  4.56008e-04  3.60083e+02  3.60058e+02  4.91037e+00  4.99034e+00  3.52952e-01 -3.08829e+00  7.63981e+01  8.30456e+05 -8.89512e+05  5.51968e+02  0.00000e+00 -5.85036e+04 -2.61101e+02 -5.87647e+04  3.52952e-01  1.00000e+00  3.11230e+00  0.00000e+00  5.36264e+00 
 7.05370e-03  5.37934e-03 -1.59677e-20  3.47944e+00  4.54494e-04  3.60087e+02  3.60058e+02  4.86745e+00  4.94627e+00  3.59836e-01 -4.85871e+00  7.66529e+01  8.61831e+05 -9.18375e+05  5.49659e+02  0.00000e+00 -5.59940e+04 -4.03187e+02 -5.63972e+04  3.59836e-01  1.00000e+00  4.88340e+00  0.00000e+00  5.90728e+00 
 7.23722e-03  5.61783e-03  0.00000e+00  3.47944e+00  4.51573e-04  3.60091e+02  3.60058e+02  4.82161e+00  4.89929e+00  3.66503e-01 -6.72958e+00  7.71491e+01  8.98526e+05 -9.53141e+05  5.48665e+02  0.00000e+00 -5.40663e+04 -5.51113e+02 -5.46175e+04  3.66504e-01  1.00000e+00  6.75506e+00  0.00000e+00  6.51476e+00 
 7.42387e-03  5.85632e-03  0.00000e+00  3.47944e+00  4.47384e-04  3.60095e+02  3.60058e+02  4.77252e+00  4.84908e+00  3.73060e-01 -8.73835e+00  7.78719e+01  9.40715e+05 -9.94369e+05  5.48889e+02  0.00000e+00 -5.31048e+04 -7.09086e+02 -5.38139e+04  3.73061e-01  1.00000e+00  8.76474e+00  0.00000e+00  7.19249e+00 
 7.61342e-03  6.09482e-03  0.00000e+00  3.47944e+00  4.41855e-04  3.60099e+02  3.60059e+02  4.72014e+00  4.79552e+00  3.79390e-01 -1.09306e+01  7.88466e+01  9.90132e+05 -1.04336e+06  5.50303e+02  0.00000e+00 -5.26792e+04 -8.82648e+02 -5.35619e+04  3.79391e-01  1.00000e+00  1.09580e+01  0.00000e+00  7.95837e+00 
 7.80566e-03  6.33332e-03  0.00000e+00  3.47944e+00  4.35133e-04  3.60104e+02  3.60059e+02  4.66349e+00  4.73763e+00  3.85644e-01 -1.33726e+01  8.00651e+01  1.04709e+06 -1.10117e+06  5.52886e+02  0.00000e+00 -5.35274e+04 -1.07835e+03 -5.46058e+04  3.85645e-01  1.00000e+00  1.34012e+01  0.00000e+00  8.82314e+00 
 8.00039e-03  6.57182e-03  0.00000e+00  3.47944e+00  4.27034e-04  3.60108e+02  3.60059e+02  4.60393e+00  4.67656e+00  3.91641e-01 -1.61525e+01  8.15839e+01  1.11485e+06 -1.17030e+06  5.56843e+02  0.00000e+00 -5.48892e+04 -1.30652e+03 -5.61957e+04  3.91643e-01  1.00000e+00  1.61824e+01  0.00000e+00  9.82135e+00 
 8.19744e-03  6.81033e-03  1.31016e-20  3.47944e+00  4.17729e-04  3.60113e+02  3.60059e+02  4.53952e+00  4.60978e+00  3.97597e-01 -1.93855e+01  8.34018e+01  1.19460e+06 -1.25267e+06  5.61831e+02  0.00000e+00 -5.75086e+04 -1.57860e+03 -5.90872e+04  3.97598e-01  1.00000e+00  1.94169e+01  0.00000e+00  1.09817e+01 
 8.39664e-03  7.04884e-03  0.00000e+00  3.47944e+00  4.07004e-04  3.60118e+02  3.60060e+02  4.47033e+00  4.53736e+00  4.03412e-01 -2.32572e+01  8.56002e+01  1.29128e+06 -1.35269e+06  5.68197e+02  0.00000e+00 -6.08420e+04 -1.91541e+03 -6.27574e+04  4.03413e-01  1.00000e+00  2.32903e+01  0.00000e+00  1.23670e+01 
 8.59784e-03  7.28736e-03  0.00000e+00  3.47944e+00  3.95053e-04  3.60123e+02  3.60060e+02  4.39153e+00  4.45505e+00  4.09286e-01 -2.80614e+01  8.81903e+01  1.40682e+06 -1.47383e+06  5.75386e+02  0.00000e+00 -6.64429e+04 -2.34643e+03 -6.87894e+04  4.09286e-01  1.00000e+00  2.80966e+01  0.00000e+00  1.40166e+01 
 8.80092e-03  7.52587e-03  0.00000e+00  3.47944e+00  3.81414e-04  3.60130e+02  3.60061e+02  4.30982e+00  4.36961e+00  4.15001e-01 -3.42718e+01  9.13445e+01  1.55183e+06 -1.62574e+06  5.84546e+02  0.00000e+00 -7.33193e+04 -2.92690e+03 -7.62462e+04  4.15002e-01  1.00000e+00  3.43093e+01  0.00000e+00  1.60618e+01 
 9.00573e-03  7.76439e-03 -1.17014e-20  3.47944e+00  3.66309e-04  3.60139e+02  3.60061e+02  4.21014e+00  4.26593e+00  4.20864e-01 -4.26297e+01  9.51121e+01  1.73113e+06 -1.81697e+06  5.95170e+02  0.00000e+00 -8.52506e+04 -3.73751e+03 -8.89882e+04  4.20863e-01  1.00000e+00  4.26700e+01  0.00000e+00  1.85817e+01 
 9.21216e-03  8.00291e-03  0.00000e+00  3.47944e+00  3.48901e-04  3.60150e+02  3.60061e+02  4.11246e+00  4.16396e+00  4.26658e-01 -5.45536e+01  9.98584e+01  1.97131e+06 -2.07146e+06  6.08991e+02  0.00000e+00 -9.95454e+04 -4.95275e+03 -1.04498e+05  4.26657e-01  1.00000e+00  5.45974e+01  0.00000e+00  2.19449e+01 
 9.42012e-03  8.24144e-03  0.00000e+00  3.47944e+00  3.29497e-04  3.60165e+02  3.60062e+02  3.97388e+00  4.02022e+00  4.32677e-01 -7.25028e+01  1.05740e+02  2.28628e+06 -2.41378e+06  6.25536e+02  0.00000e+00 -1.26872e+05 -6.87214e+03 -1.33745e+05  4.32675e-01  1.00000e+00  7.25509e+01  0.00000e+00  2.63185e+01 
 9.62949e-03  8.47996e-03  0.00000e+00  3.47944e+00  3.06554e-04  3.60187e+02  3.60062e+02  3.84979e+00  3.89129e+00  4.38740e-01 -1.02167e+02  1.13655e+02  2.75356e+06 -2.91805e+06  6.48463e+02  0.00000e+00 -1.63845e+05 -1.02636e+04 -1.74108e+05  4.38738e-01  1.00000e+00  1.02221e+02  0.00000e+00  3.28174e+01 
 9.84019e-03  8.71849e-03  0.00000e+00  3.47944e+00  2.80165e-04  3.60223e+02  3.60063e+02  3.64570e+00  3.68219e+00  4.45011e-01 -1.56231e+02  1.24362e+02  3.45551e+06 -3.69186e+06  6.73705e+02  0.00000e+00 -2.35671e+05 -1.69294e+04 -2.52601e+05  4.45007e-01  1.00000e+00  1.56293e+02  0.00000e+00  4.24773e+01 
 1.00521e-02  8.95702e-03  0.00000e+00  3.47944e+00  2.47170e-04  3.60287e+02  3.60064e+02  3.45924e+00  3.49106e+00  4.51523e-01 -2.75198e+02  1.40965e+02  4.75063e+06 -5.09667e+06  7.18124e+02  0.00000e+00 -3.45322e+05 -3.33117e+04 -3.78634e+05  4.51520e-01  1.00000e+00  2.75272e+02  0.00000e+00  6.05414e+01 
 1.02653e-02  9.19555e-03  0.00000e+00  3.47944e+00  2.07156e-04  3.60432e+02  3.60065e+02  3.09489e+00  3.12197e+00  4.58701e-01 -6.12951e+02  1.68197e+02  7.47457e+06 -7.98006e+06  7.60131e+02  0.00000e+00 -5.04728e+05 -8.71284e+04 -5.91856e+05  4.58696e-01  1.00000e+00  6.13046e+02  0.00000e+00  1.00228e+02 
 1.04795e-02  9.43408e-03  0.00000e+00  3.47944e+00  1.59928e-04  3.60917e+02  3.60066e+02  2.59161e+00  2.60829e+00  4.68956e-01 -5.59850e+03  2.17870e+02  1.56308e+07 -1.47669e+07  8.49749e+02  1.16990e+06  2.03464e+06 -2.06526e+06 -3.06177e+04  4.68961e-01  1.00000e+00  5.59863e+03  3.41305e+03  2.53459e+02 
