# Code_Saturne plot output (1D profile)
#
# Iteration output: 3642
# Time output:      2.30006e+01
#
#COLUMN_TITLES: Distance | X | Y | Z | diameter_Field2 | temp_Field1 | temp_Field2 | Velocity_Field1[Z] | Velocity_Field2[Z] | vol_f_Field2 | mass_trans_Field1 | Xd_Field2 | BK | COAL | COMP | NUCL | W1 | MT | SMBR | ALPBB | CONDNUM | GAMA | GAMANUC | epsilon_Field1
 4.56474e-03  1.39645e-04  0.00000e+00  3.47944e+00  1.20374e-05  3.59075e+02  3.60051e+02  4.22227e+00  4.22264e+00  4.27395e-03  3.11887e+02  2.89537e+03 1.42285e-189 -1.95570e+06  1.43157e+04  0.00000e+00 -1.94139e+06  1.31775e+08  1.29833e+08  4.28780e-03  1.00000e+00 -3.11306e+02  0.00000e+00  4.52705e-01 
 4.57812e-03  3.76525e-04  4.25872e-21  3.47944e+00  2.41417e-05  3.59074e+02  3.60051e+02  4.22232e+00  4.22362e+00  7.76098e-03  2.12042e+02  1.44368e+03  7.47988e-53 -1.10206e+06  7.00686e+03  0.00000e+00 -1.09505e+06  2.46526e+07  2.35575e+07  7.77440e-03  1.00000e+00 -2.11646e+02  0.00000e+00  4.56488e-01 
 4.60371e-03  6.13858e-04  0.00000e+00  3.47944e+00  3.88246e-05  3.59074e+02  3.60051e+02  4.22150e+00  4.22457e+00  1.03850e-02  1.40161e+02  8.97700e+02  3.20691e-19 -6.63030e+05  4.39337e+03  0.00000e+00 -6.58637e+05  7.57885e+06  6.92021e+06  1.03978e-02  1.00000e+00 -1.39897e+02  0.00000e+00  4.63705e-01 
 4.64138e-03  8.51483e-04  0.00000e+00  3.47944e+00  5.35480e-05  3.59077e+02  3.60051e+02  4.21996e+00  4.22547e+00  1.22878e-02  1.01846e+02  6.50871e+02  6.05031e-08 -4.57554e+05  3.18982e+03  0.00000e+00 -4.54364e+05  3.37641e+06  2.92204e+06  1.23004e-02  1.00000e+00 -1.01654e+02  0.00000e+00  4.74352e-01 
 4.69084e-03  1.08931e-03  0.00000e+00  3.47944e+00  6.72680e-05  3.59082e+02  3.60051e+02  4.21762e+00  4.22599e+00  1.41116e-02  8.21358e+01  5.18119e+02  4.74683e-03 -3.59556e+05  2.54193e+03  0.00000e+00 -3.57014e+05  1.88828e+06  1.53126e+06  1.41242e-02  1.00000e+00 -8.19798e+01  0.00000e+00  4.88599e-01 
 4.75174e-03  1.32727e-03  1.05001e-20  3.47944e+00  7.96284e-05  3.59091e+02  3.60051e+02  4.21451e+00  4.22541e+00  1.62383e-02  7.36156e+01  4.37693e+02  1.60698e+00 -3.13738e+05  2.15081e+03  0.00000e+00 -3.11586e+05  1.24283e+06  9.31246e+05  1.62510e-02  1.00000e+00 -7.34745e+01  0.00000e+00  5.06827e-01 
 4.82366e-03  1.56534e-03  0.00000e+00  3.47944e+00  9.10820e-05  3.59103e+02  3.60051e+02  4.21061e+00  4.22390e+00  1.86789e-02  6.93048e+01  3.82653e+02  5.36822e+01 -2.90651e+05  1.88251e+03  0.00000e+00 -2.88715e+05  8.89424e+05  6.00709e+05  1.86922e-02  1.00000e+00 -6.91703e+01  0.00000e+00  5.29329e-01 
 4.90611e-03  1.80349e-03  8.81027e-21  3.47944e+00  1.02072e-04  3.59118e+02  3.60051e+02  4.20592e+00  4.22150e+00  2.14781e-02  6.71332e+01  3.41454e+02  5.60582e+02 -2.79272e+05  1.68105e+03  0.00000e+00 -2.77031e+05  6.68680e+05  3.91649e+05  2.14922e-02  1.00000e+00 -6.70008e+01  0.00000e+00  5.56753e-01 
 4.99859e-03  2.04170e-03  0.00000e+00  3.47944e+00  1.12812e-04  3.59136e+02  3.60051e+02  4.20042e+00  4.21821e+00  2.46808e-02  6.62473e+01  3.08947e+02  2.95494e+03 -2.75149e+05  1.52169e+03  0.00000e+00 -2.70672e+05  5.19600e+05  2.48928e+05  2.46958e-02  1.00000e+00 -6.61141e+01  0.00000e+00  5.89760e-01 
 5.10055e-03  2.27996e-03  7.58893e-21  3.47944e+00  1.23327e-04  3.59158e+02  3.60051e+02  4.19406e+00  4.21398e+00  2.83482e-02  6.62850e+01  2.82606e+02  9.94659e+03 -2.76646e+05  1.39215e+03  0.00000e+00 -2.65307e+05  4.14070e+05  1.48763e+05  2.83642e-02  1.00000e+00 -6.61487e+01  0.00000e+00  6.29185e-01 
 5.21143e-03  2.51826e-03  7.09702e-21  3.47944e+00  1.33542e-04  3.59182e+02  3.60051e+02  4.18679e+00  4.20872e+00  3.25331e-02  6.70878e+01  2.60988e+02  2.44977e+04 -2.83070e+05  1.28560e+03  0.00000e+00 -2.57287e+05  3.37254e+05  7.99669e+04  3.25504e-02  1.00000e+00 -6.69461e+01  0.00000e+00  6.75963e-01 
 5.33068e-03  2.75659e-03  1.33300e-20  3.47944e+00  1.43379e-04  3.59208e+02  3.60051e+02  4.17854e+00  4.20236e+00  3.73076e-02  6.85466e+01  2.43081e+02  4.83146e+04 -2.94261e+05  1.19689e+03  0.00000e+00 -2.44750e+05  2.79877e+05  3.51276e+04  3.73263e-02  1.00000e+00 -6.83975e+01  0.00000e+00  7.31250e-01 
 5.45775e-03  2.99495e-03  1.25651e-20  3.47944e+00  1.52828e-04  3.59237e+02  3.60051e+02  4.16922e+00  4.19480e+00  4.27354e-02  7.05668e+01  2.28053e+02  8.12773e+04 -3.09975e+05  1.12223e+03  0.00000e+00 -2.27576e+05  2.35978e+05  8.40216e+03  4.27559e-02  1.00000e+00 -7.04079e+01  0.00000e+00  7.96316e-01 
 5.59212e-03  3.23333e-03  0.00000e+00  3.47944e+00  1.61977e-04  3.59268e+02  3.60051e+02  4.15872e+00  4.18594e+00  4.88891e-02  7.29760e+01  2.15172e+02  1.21992e+05 -3.29887e+05  1.05771e+03  0.00000e+00 -2.06838e+05  2.01267e+05 -5.57072e+03  4.89107e-02  1.00000e+00 -7.28054e+01  0.00000e+00  8.72728e-01 
 5.73326e-03  3.47172e-03  0.00000e+00  3.47944e+00  1.71009e-04  3.59301e+02  3.60051e+02  4.14690e+00  4.17569e+00  5.58423e-02  7.56304e+01  2.03807e+02  1.68494e+05 -3.53459e+05  1.00060e+03  0.00000e+00 -1.83965e+05  1.72964e+05 -1.10008e+04  5.58655e-02  1.00000e+00 -7.54461e+01  0.00000e+00  9.62272e-01 
 5.88069e-03  3.71014e-03 -5.35987e-21  3.47944e+00  1.80180e-04  3.59336e+02  3.60051e+02  4.13363e+00  4.16396e+00  6.36680e-02  7.81509e+01  1.93434e+02  2.18613e+05 -3.79879e+05  9.48020e+02  0.00000e+00 -1.60318e+05  1.48773e+05 -1.15444e+04  6.36920e-02  1.00000e+00 -7.79515e+01  0.00000e+00  1.06701e+00 
 6.03395e-03  3.94857e-03  5.10973e-21  3.47944e+00  1.89770e-04  3.59372e+02  3.60051e+02  4.11871e+00  4.15064e+00  7.23882e-02  7.95948e+01  1.83659e+02  2.69978e+05 -4.07886e+05  8.98393e+02  0.00000e+00 -1.37010e+05  1.26523e+05 -1.04871e+04  7.24142e-02  1.00000e+00 -7.93814e+01  0.00000e+00  1.18921e+00 
 6.19261e-03  4.18701e-03  0.00000e+00  3.47944e+00  2.00030e-04  3.59409e+02  3.60051e+02  4.10195e+00  4.13559e+00  8.20598e-02  8.04035e+01  1.74239e+02  3.20069e+05 -4.36440e+05  8.50277e+02  0.00000e+00 -1.15521e+05  1.06952e+05 -8.56895e+03  8.20875e-02  1.00000e+00 -8.01760e+01  0.00000e+00  1.33149e+00 
 6.35626e-03  4.42546e-03  0.00000e+00  3.47944e+00  2.11183e-04  3.59446e+02  3.60051e+02  4.08310e+00  4.11854e+00  9.26605e-02  8.04007e+01  1.65037e+02  3.66525e+05 -4.64083e+05  8.03182e+02  0.00000e+00 -9.67544e+04  8.96980e+04 -7.05643e+03  9.26900e-02  1.00000e+00 -8.01596e+01  0.00000e+00  1.49692e+00 
 6.52453e-03  4.66392e-03 -8.96437e-21  3.47944e+00  2.23421e-04  3.59484e+02  3.60051e+02  4.06189e+00  4.09916e+00  1.04209e-01  7.94569e+01  1.55997e+02  4.07311e+05 -4.89723e+05  7.56465e+02  0.00000e+00 -8.16554e+04  7.44924e+04 -7.16299e+03  1.04239e-01  1.00000e+00 -7.92034e+01  0.00000e+00  1.68898e+00 
 6.69707e-03  4.90238e-03  1.72236e-20  3.47944e+00  2.36840e-04  3.59522e+02  3.60051e+02  4.03803e+00  4.07724e+00  1.16569e-01  7.75092e+01  1.47159e+02  4.40886e+05 -5.11890e+05  7.10818e+02  0.00000e+00 -7.02941e+04  6.12683e+04 -9.02576e+03  1.16600e-01  1.00000e+00 -7.72448e+01  0.00000e+00  1.91088e+00 
 6.87356e-03  5.14086e-03  8.28595e-21  3.47944e+00  2.51424e-04  3.59561e+02  3.60051e+02  4.01126e+00  4.05251e+00  1.29655e-01  7.45930e+01  1.38623e+02  4.66594e+05 -5.30010e+05  6.66346e+02  0.00000e+00 -6.27497e+04  4.99262e+04 -1.28235e+04  1.29687e-01  1.00000e+00 -7.43195e+01  0.00000e+00  2.16669e+00 
 7.05370e-03  5.37934e-03 -1.59677e-20  3.47944e+00  2.67000e-04  3.59599e+02  3.60051e+02  3.98129e+00  4.02466e+00  1.43244e-01  7.08297e+01  1.30537e+02  4.84543e+05 -5.43577e+05  6.24110e+02  0.00000e+00 -5.84090e+04  4.03961e+04 -1.80129e+04  1.43278e-01  1.00000e+00 -7.05491e+01  0.00000e+00  2.45992e+00 
 7.23722e-03  5.61783e-03  0.00000e+00  3.47944e+00  2.83222e-04  3.59637e+02  3.60051e+02  3.94797e+00  3.99348e+00  1.57141e-01  6.63898e+01  1.23060e+02  4.95867e+05 -5.53065e+05  5.84527e+02  0.00000e+00 -5.66138e+04  3.25287e+04 -2.40851e+04  1.57175e-01  1.00000e+00 -6.61039e+01  0.00000e+00  2.79580e+00 
 7.42387e-03  5.85632e-03  0.00000e+00  3.47944e+00  2.99578e-04  3.59674e+02  3.60051e+02  3.91108e+00  3.95871e+00  1.71143e-01  6.15093e+01  1.16342e+02  5.02131e+05 -5.59469e+05  5.48636e+02  0.00000e+00 -5.67898e+04  2.61511e+04 -3.06387e+04  1.71178e-01  1.00000e+00 -6.12192e+01  0.00000e+00  3.17847e+00 
 7.61342e-03  6.09482e-03  0.00000e+00  3.47944e+00  3.15402e-04  3.59712e+02  3.60051e+02  3.87062e+00  3.92021e+00  1.84988e-01  5.63601e+01  1.10505e+02  5.05735e+05 -5.64243e+05  5.16636e+02  0.00000e+00 -5.79921e+04  2.10468e+04 -3.69453e+04  1.85024e-01  1.00000e+00 -5.60663e+01  0.00000e+00  3.61628e+00 
 7.80566e-03  6.33332e-03  0.00000e+00  3.47944e+00  3.30008e-04  3.59750e+02  3.60051e+02  3.82628e+00  3.87761e+00  1.98637e-01  5.11268e+01  1.05614e+02  5.08619e+05 -5.69409e+05  4.89118e+02  0.00000e+00 -6.03008e+04  1.69837e+04 -4.33171e+04  1.98674e-01  1.00000e+00 -5.08288e+01  0.00000e+00  4.11566e+00 
 8.00039e-03  6.57182e-03  0.00000e+00  3.47944e+00  3.42665e-04  3.59787e+02  3.60052e+02  3.77813e+00  3.83080e+00  2.11822e-01  4.58533e+01  1.01714e+02  5.13392e+05 -5.76709e+05  4.65832e+02  0.00000e+00 -6.28506e+04  1.37460e+04 -4.91046e+04  2.11859e-01  1.00000e+00 -4.55503e+01  0.00000e+00  4.69279e+00 
 8.19744e-03  6.81033e-03  1.31016e-20  3.47944e+00  3.52859e-04  3.59825e+02  3.60052e+02  3.72536e+00  3.77895e+00  2.24706e-01  4.05632e+01  9.87756e+01  5.21378e+05 -5.88303e+05  4.46871e+02  0.00000e+00 -6.64782e+04  1.11206e+04 -5.53576e+04  2.24744e-01  1.00000e+00 -4.02533e+01  0.00000e+00  5.35970e+00 
 8.39664e-03  7.04884e-03  0.00000e+00  3.47944e+00  3.60054e-04  3.59864e+02  3.60052e+02  3.66815e+00  3.72211e+00  2.37047e-01  3.51493e+01  9.68020e+01  5.35035e+05 -6.05946e+05  4.31681e+02  0.00000e+00 -7.04799e+04  8.93945e+03 -6.15404e+04  2.37085e-01  1.00000e+00 -3.48300e+01  0.00000e+00  6.14876e+00 
 8.59784e-03  7.28736e-03  0.00000e+00  3.47944e+00  3.64052e-04  3.59904e+02  3.60052e+02  3.60445e+00  3.65821e+00  2.49100e-01  2.94557e+01  9.57395e+01  5.55273e+05 -6.31800e+05  4.20165e+02  0.00000e+00 -7.61069e+04  7.03532e+03 -6.90716e+04  2.49140e-01  1.00000e+00 -2.91239e+01  0.00000e+00  7.08439e+00 
 8.80092e-03  7.52587e-03  0.00000e+00  3.47944e+00  3.64513e-04  3.59945e+02  3.60052e+02  3.53559e+00  3.58850e+00  2.60735e-01  2.32254e+01  9.56190e+01  5.85157e+05 -6.68647e+05  4.11829e+02  0.00000e+00 -8.30782e+04  5.27320e+03 -7.78050e+04  2.60776e-01  1.00000e+00 -2.28771e+01  0.00000e+00  8.23350e+00 
 9.00573e-03  7.76439e-03 -1.17014e-20  3.47944e+00  3.61437e-04  3.59988e+02  3.60053e+02  3.45574e+00  3.50726e+00  2.72200e-01  1.60525e+01  9.64330e+01  6.26446e+05 -7.19780e+05  4.06284e+02  0.00000e+00 -9.29269e+04  3.49219e+03 -8.94347e+04  2.72244e-01  1.00000e+00 -1.56829e+01  0.00000e+00  9.65586e+00 
 9.21216e-03  8.00291e-03  0.00000e+00  3.47944e+00  3.54493e-04  3.60034e+02  3.60053e+02  3.37076e+00  3.42027e+00  2.83340e-01  7.33272e+00  9.83228e+01  6.85379e+05 -7.90993e+05  4.03457e+02  0.00000e+00 -1.05211e+05  1.51270e+03 -1.03699e+05  2.83386e-01  1.00000e+00 -6.93536e+00  0.00000e+00  1.15191e+01 
 9.42012e-03  8.24144e-03  0.00000e+00  3.47944e+00  3.43793e-04  3.60085e+02  3.60053e+02  3.26418e+00  3.31111e+00  2.94575e-01 -9.09332e+00  1.01384e+02  7.66457e+05 -8.90000e+05  4.03020e+02  0.00000e+00 -1.23141e+05 -2.17399e+03 -1.25315e+05  2.94629e-01  1.00000e+00  1.00504e+01  0.00000e+00  1.39807e+01 
 9.62949e-03  8.47996e-03  0.00000e+00  3.47944e+00  3.28647e-04  3.60144e+02  3.60054e+02  3.15093e+00  3.19383e+00  3.05685e-01 -4.51785e+01  1.06057e+02  8.87416e+05 -1.03351e+06  4.06195e+02  0.00000e+00 -1.45687e+05 -1.00827e+04 -1.55769e+05  3.05741e-01  1.00000e+00  4.62388e+01  0.00000e+00  1.75703e+01 
 9.84019e-03  8.71849e-03  0.00000e+00  3.47944e+00  3.08635e-04  3.60219e+02  3.60054e+02  2.99100e+00  3.03038e+00  3.17015e-01 -1.02517e+02  1.12934e+02  1.06932e+06 -1.25079e+06  4.11427e+02  0.00000e+00 -1.81054e+05 -2.32224e+04 -2.04276e+05  3.17075e-01  1.00000e+00  1.03718e+02  0.00000e+00  2.29120e+01 
 1.00521e-02  8.95702e-03  0.00000e+00  3.47944e+00  2.82314e-04  3.60329e+02  3.60054e+02  2.82454e+00  2.86119e+00  3.28495e-01 -2.10239e+02  1.23465e+02  1.39119e+06 -1.60816e+06  4.20271e+02  0.00000e+00 -2.16546e+05 -4.99964e+04 -2.66543e+05  3.28558e-01  1.00000e+00  2.11651e+02  0.00000e+00  3.28481e+01 
 1.02653e-02  9.19555e-03  0.00000e+00  3.47944e+00  2.50040e-04  3.60530e+02  3.60055e+02  2.53433e+00  2.56633e+00  3.41158e-01 -4.63013e+02  1.39403e+02  2.01279e+06 -2.21937e+06  4.23399e+02  0.00000e+00 -2.06152e+05 -1.19353e+05 -3.25505e+05  3.41229e-01  1.00000e+00  4.64745e+02  0.00000e+00  5.47773e+01 
 1.04795e-02  9.43408e-03  0.00000e+00  3.47944e+00  2.14133e-04  3.61068e+02  3.60056e+02  2.10204e+00  2.12477e+00  3.57259e-01 -4.48052e+03  1.62781e+02  3.58641e+06 -3.07630e+06  4.25676e+02  1.71238e+06  2.22291e+06 -2.24049e+06 -1.75734e+04  3.57315e-01  1.00000e+00  4.48277e+03  3.15060e+03  1.39329e+02 
