# Code_Saturne plot output (1D profile)
#
# Iteration output: 4095
# Time output:      2.30008e+01
#
#COLUMN_TITLES: Distance | X | Y | Z | diameter_Field2 | temp_Field1 | temp_Field2 | Velocity_Field1[Z] | Velocity_Field2[Z] | vol_f_Field2 | mass_trans_Field1 | Xd_Field2 | BK | COAL | COMP | NUCL | W1 | MT | SMBR | ALPBB | CONDNUM | GAMA | GAMANUC | epsilon_Field1
 4.56474e-03  1.39645e-04  0.00000e+00  3.47944e+00  5.95315e-05  3.59515e+02  3.60052e+02  4.52003e+00  4.52932e+00  4.13613e-02  1.48081e+02  5.85402e+02  3.40662e-06 -6.72349e+05  3.23660e+03  0.00000e+00 -6.69112e+05  6.35974e+05 -3.31379e+04  4.13681e-02  1.00000e+00 -1.47815e+02  0.00000e+00  4.48041e-01 
 4.57812e-03  3.76525e-04  4.25872e-21  3.47944e+00  7.88820e-05  3.59516e+02  3.60052e+02  4.51961e+00  4.53336e+00  4.21472e-02  1.02305e+02  4.41796e+02  2.38667e-01 -4.25143e+05  2.44219e+03  0.00000e+00 -4.22700e+05  3.25417e+05 -9.72834e+04  4.21537e-02  1.00000e+00 -1.02120e+02  0.00000e+00  4.53146e-01 
 4.60371e-03  6.13858e-04  0.00000e+00  3.47944e+00  9.50941e-05  3.59518e+02  3.60052e+02  4.51822e+00  4.53570e+00  4.35429e-02  8.19399e+01  3.66477e+02  2.97343e+01 -3.21095e+05  2.02655e+03  0.00000e+00 -3.19039e+05  2.09276e+05 -1.09763e+05  4.35492e-02  1.00000e+00 -8.17907e+01  0.00000e+00  4.63182e-01 
 4.64138e-03  8.51483e-04  0.00000e+00  3.47944e+00  1.08688e-04  3.59523e+02  3.60052e+02  4.51611e+00  4.53665e+00  4.55283e-02  7.14058e+01  3.20642e+02  3.92203e+02 -2.69652e+05  1.77355e+03  0.00000e+00 -2.67486e+05  1.52603e+05 -1.14883e+05  4.55347e-02  1.00000e+00 -7.12744e+01  0.00000e+00  4.78341e-01 
 4.69084e-03  1.08931e-03  0.00000e+00  3.47944e+00  1.20618e-04  3.59531e+02  3.60052e+02  4.51325e+00  4.53642e+00  4.81122e-02  6.53319e+01  2.88926e+02  1.99427e+03 -2.41404e+05  1.59833e+03  0.00000e+00 -2.37812e+05  1.19054e+05 -1.18758e+05  4.81186e-02  1.00000e+00 -6.52101e+01  0.00000e+00  4.98879e-01 
 4.75174e-03  1.32727e-03  1.05001e-20  3.47944e+00  1.31290e-04  3.59540e+02  3.60052e+02  4.50963e+00  4.53507e+00  5.13186e-02  6.17640e+01  2.65442e+02  6.12687e+03 -2.26138e+05  1.46842e+03  0.00000e+00 -2.18543e+05  9.69410e+04 -1.21602e+05  5.13251e-02  1.00000e+00 -6.16467e+01  0.00000e+00  5.25194e-01 
 4.82366e-03  1.56534e-03  0.00000e+00  3.47944e+00  1.40878e-04  3.59552e+02  3.60052e+02  4.50522e+00  4.53262e+00  5.51925e-02  5.98392e+01  2.47376e+02  1.39051e+04 -2.19487e+05  1.36832e+03  0.00000e+00 -2.04214e+05  8.13811e+04 -1.22833e+05  5.51997e-02  1.00000e+00 -5.97229e+01  0.00000e+00  5.57867e-01 
 4.90611e-03  1.80349e-03  8.81027e-21  3.47944e+00  1.49480e-04  3.59566e+02  3.60052e+02  4.49999e+00  4.52908e+00  5.97664e-02  5.90558e+01  2.33140e+02  2.59165e+04 -2.19211e+05  1.28921e+03  0.00000e+00 -1.92006e+05  6.98979e+04 -1.22108e+05  5.97737e-02  1.00000e+00 -5.89378e+01  0.00000e+00  5.97545e-01 
 4.99859e-03  2.04170e-03  0.00000e+00  3.47944e+00  1.57197e-04  3.59582e+02  3.60052e+02  4.49388e+00  4.52442e+00  6.50879e-02  5.89230e+01  2.21694e+02  4.22641e+04 -2.24116e+05  1.22541e+03  0.00000e+00 -1.80626e+05  6.08919e+04 -1.19734e+05  6.50954e-02  1.00000e+00 -5.88014e+01  0.00000e+00  6.45098e-01 
 5.10055e-03  2.27996e-03  7.58893e-21  3.47944e+00  1.64156e-04  3.59600e+02  3.60052e+02  4.48683e+00  4.51861e+00  7.12126e-02  5.91324e+01  2.12297e+02  6.27591e+04 -2.33495e+05  1.17281e+03  0.00000e+00 -1.69564e+05  5.34816e+04 -1.16082e+05  7.12203e-02  1.00000e+00 -5.90057e+01  0.00000e+00  7.01520e-01 
 5.21143e-03  2.51826e-03  7.09702e-21  3.47944e+00  1.70503e-04  3.59620e+02  3.60052e+02  4.47874e+00  4.51160e+00  7.81655e-02  5.96830e+01  2.04394e+02  8.70977e+04 -2.46811e+05  1.12835e+03  0.00000e+00 -1.58585e+05  4.73436e+04 -1.11241e+05  7.81734e-02  1.00000e+00 -5.95496e+01  0.00000e+00  7.68048e-01 
 5.33068e-03  2.75659e-03  1.33300e-20  3.47944e+00  1.76405e-04  3.59641e+02  3.60051e+02  4.46953e+00  4.50335e+00  8.60022e-02  6.04000e+01  1.97555e+02  1.14914e+05 -2.63744e+05  1.08959e+03  0.00000e+00 -1.47740e+05  4.20851e+04 -1.05655e+05  8.60108e-02  1.00000e+00 -6.02584e+01  0.00000e+00  8.46084e-01 
 5.45775e-03  2.99495e-03  1.25651e-20  3.47944e+00  1.82033e-04  3.59663e+02  3.60051e+02  4.45906e+00  4.49374e+00  9.47283e-02  6.11025e+01  1.91448e+02  1.45762e+05 -2.83861e+05  1.05467e+03  0.00000e+00 -1.37044e+05  3.74537e+04 -9.95908e+04  9.47368e-02  1.00000e+00 -6.09516e+01  0.00000e+00  9.37214e-01 
 5.59212e-03  3.23333e-03  0.00000e+00  3.47944e+00  1.87558e-04  3.59686e+02  3.60052e+02  4.44718e+00  4.48267e+00  1.04373e-01  6.16382e+01  1.85808e+02  1.79171e+05 -3.06843e+05  1.02186e+03  0.00000e+00 -1.26650e+05  3.32752e+04 -9.33749e+04  1.04384e-01  1.00000e+00 -6.14769e+01  0.00000e+00  1.04360e+00 
 5.73326e-03  3.47172e-03  0.00000e+00  3.47944e+00  1.93139e-04  3.59709e+02  3.60052e+02  4.43372e+00  4.46990e+00  1.14871e-01  6.18368e+01  1.80440e+02  2.14355e+05 -3.31979e+05  9.90614e+02  0.00000e+00 -1.16633e+05  2.94505e+04 -8.71822e+04  1.14883e-01  1.00000e+00 -6.16644e+01  0.00000e+00  1.16695e+00 
 5.88069e-03  3.71014e-03 -5.35987e-21  3.47944e+00  1.98918e-04  3.59733e+02  3.60052e+02  4.41846e+00  4.45528e+00  1.26162e-01  6.15508e+01  1.75198e+02  2.50467e+05 -3.58592e+05  9.59806e+02  0.00000e+00 -1.07165e+05  2.59108e+04 -8.12543e+04  1.26173e-01  1.00000e+00 -6.13672e+01  0.00000e+00  1.30955e+00 
 6.03395e-03  3.94857e-03  5.10973e-21  3.47944e+00  2.05019e-04  3.59757e+02  3.60052e+02  4.40119e+00  4.43865e+00  1.38220e-01  6.07300e+01  1.69984e+02  2.86631e+05 -3.86100e+05  9.29004e+02  0.00000e+00 -9.85404e+04  2.26360e+04 -7.59044e+04  1.38229e-01  1.00000e+00 -6.05351e+01  0.00000e+00  1.47431e+00 
 6.19261e-03  4.18701e-03  0.00000e+00  3.47944e+00  2.11529e-04  3.59781e+02  3.60052e+02  4.38166e+00  4.41977e+00  1.50937e-01  5.92978e+01  1.64753e+02  3.21836e+05 -4.13684e+05  8.97812e+02  0.00000e+00 -9.09499e+04  1.96125e+04 -7.13374e+04  1.50944e-01  1.00000e+00 -5.90920e+01  0.00000e+00  1.66389e+00 
 6.35626e-03  4.42546e-03  0.00000e+00  3.47944e+00  2.18497e-04  3.59804e+02  3.60052e+02  4.35961e+00  4.39838e+00  1.64239e-01  5.72664e+01  1.59499e+02  3.55137e+05 -4.40708e+05  8.66254e+02  0.00000e+00 -8.47044e+04  1.68468e+04 -6.78576e+04  1.64243e-01  1.00000e+00 -5.70502e+01  0.00000e+00  1.88120e+00 
 6.52453e-03  4.66392e-03 -8.96437e-21  3.47944e+00  2.25915e-04  3.59827e+02  3.60052e+02  4.33483e+00  4.37427e+00  1.77944e-01  5.46444e+01  1.54262e+02  3.85916e+05 -4.66471e+05  8.34234e+02  0.00000e+00 -7.97214e+04  1.43451e+04 -6.53763e+04  1.77949e-01  1.00000e+00 -5.44187e+01  0.00000e+00  2.13014e+00 
 6.69707e-03  4.90238e-03  1.72236e-20  3.47944e+00  2.33716e-04  3.59849e+02  3.60052e+02  4.30706e+00  4.34720e+00  1.91853e-01  5.15000e+01  1.49113e+02  4.13508e+05 -4.90341e+05  8.02494e+02  0.00000e+00 -7.60305e+04  1.21160e+04 -6.39145e+04  1.91858e-01  1.00000e+00 -5.12660e+01  0.00000e+00  2.41269e+00 
 6.87356e-03  5.14086e-03  8.28595e-21  3.47944e+00  2.41768e-04  3.59870e+02  3.60052e+02  4.27618e+00  4.31699e+00  2.05743e-01  4.79123e+01  1.44147e+02  4.37907e+05 -5.12063e+05  7.71303e+02  0.00000e+00 -7.33856e+04  1.01558e+04 -6.32297e+04  2.05750e-01  1.00000e+00 -4.76710e+01  0.00000e+00  2.73283e+00 
 7.05370e-03  5.37934e-03 -1.59677e-20  3.47944e+00  2.49888e-04  3.59891e+02  3.60052e+02  4.24203e+00  4.28349e+00  2.19451e-01  4.40155e+01  1.39463e+02  4.59274e+05 -5.31738e+05  7.41460e+02  0.00000e+00 -7.17218e+04  8.45789e+03 -6.32639e+04  2.19458e-01  1.00000e+00 -4.37679e+01  0.00000e+00  3.09377e+00 
 7.23722e-03  5.61783e-03  0.00000e+00  3.47944e+00  2.57838e-04  3.59911e+02  3.60052e+02  4.20457e+00  4.24661e+00  2.32868e-01  3.99185e+01  1.35164e+02  4.78297e+05 -5.49992e+05  7.13266e+02  0.00000e+00 -7.09821e+04  7.00083e+03 -6.39812e+04  2.32874e-01  1.00000e+00 -3.96652e+01  0.00000e+00  3.50122e+00 
 7.42387e-03  5.85632e-03  0.00000e+00  3.47944e+00  2.65352e-04  3.59930e+02  3.60052e+02  4.16367e+00  4.20619e+00  2.45889e-01  3.57269e+01  1.31337e+02  4.95725e+05 -5.67549e+05  6.87375e+02  0.00000e+00 -7.11372e+04  5.76079e+03 -6.53764e+04  2.45895e-01  1.00000e+00 -3.54684e+01  0.00000e+00  3.96003e+00 
 7.61342e-03  6.09482e-03  0.00000e+00  3.47944e+00  2.72131e-04  3.59949e+02  3.60052e+02  4.11932e+00  4.16218e+00  2.58424e-01  3.14998e+01  1.28066e+02  5.12804e+05 -5.85517e+05  6.63970e+02  0.00000e+00 -7.20497e+04  4.70704e+03 -6.73426e+04  2.58431e-01  1.00000e+00 -3.12360e+01  0.00000e+00  4.47981e+00 
 7.80566e-03  6.33332e-03  0.00000e+00  3.47944e+00  2.77904e-04  3.59967e+02  3.60052e+02  4.07117e+00  4.11420e+00  2.70481e-01  2.72786e+01  1.25406e+02  5.30548e+05 -6.05114e+05  6.43499e+02  0.00000e+00 -7.39222e+04  3.80784e+03 -7.01144e+04  2.70490e-01  1.00000e+00 -2.70089e+01  0.00000e+00  5.06917e+00 
 8.00039e-03  6.57182e-03  0.00000e+00  3.47944e+00  2.82382e-04  3.59984e+02  3.60052e+02  4.01922e+00  4.06216e+00  2.81971e-01  2.30522e+01  1.23417e+02  5.50639e+05 -6.27779e+05  6.25880e+02  0.00000e+00 -7.65141e+04  3.03136e+03 -7.34828e+04  2.81981e-01  1.00000e+00 -2.27759e+01  0.00000e+00  5.74672e+00 
 8.19744e-03  6.81033e-03  1.31016e-20  3.47944e+00  2.85363e-04  3.60001e+02  3.60053e+02  3.96255e+00  4.00516e+00  2.93045e-01  1.87847e+01  1.22129e+02  5.74095e+05 -6.55174e+05  6.11392e+02  0.00000e+00 -8.04674e+04  2.34453e+03 -7.81228e+04  2.93056e-01  1.00000e+00 -1.85004e+01  0.00000e+00  6.52803e+00 
 8.39664e-03  7.04884e-03  0.00000e+00  3.47944e+00  2.86602e-04  3.60018e+02  3.60053e+02  3.90142e+00  3.94337e+00  3.03599e-01  1.43892e+01  1.21602e+02  6.03186e+05 -6.89284e+05  5.99794e+02  0.00000e+00 -8.54982e+04  1.71668e+03 -8.37815e+04  3.03613e-01  1.00000e+00 -1.40949e+01  0.00000e+00  7.44997e+00 
 8.59784e-03  7.28736e-03  0.00000e+00  3.47944e+00  2.85981e-04  3.60035e+02  3.60053e+02  3.83349e+00  3.87449e+00  3.13835e-01  9.73049e+00  1.21866e+02  6.39218e+05 -7.32416e+05  5.91269e+02  0.00000e+00 -9.26066e+04  1.11276e+03 -9.14939e+04  3.13850e-01  1.00000e+00 -9.42392e+00  0.00000e+00  8.54304e+00 
 8.80092e-03  7.52587e-03  0.00000e+00  3.47944e+00  2.83289e-04  3.60052e+02  3.60053e+02  3.76046e+00  3.80013e+00  3.23706e-01  4.60779e+00  1.23025e+02  6.85752e+05 -7.88142e+05  5.85692e+02  0.00000e+00 -1.01804e+05  4.95286e+02 -1.01309e+05  3.23723e-01  1.00000e+00 -4.28574e+00  0.00000e+00  9.88375e+00 
 9.00573e-03  7.76439e-03 -1.17014e-20  3.47944e+00  2.78467e-04  3.60070e+02  3.60054e+02  3.67573e+00  3.71380e+00  3.33402e-01 -2.99227e+00  1.25156e+02  7.45490e+05 -8.60602e+05  5.82706e+02  0.00000e+00 -1.14529e+05 -4.25533e+02 -1.14955e+05  3.33424e-01  1.00000e+00  3.72797e+00  0.00000e+00  1.15451e+01 
 9.21216e-03  8.00291e-03  0.00000e+00  3.47944e+00  2.71247e-04  3.60089e+02  3.60054e+02  3.58622e+00  3.62232e+00  3.42840e-01 -1.92086e+01  1.28488e+02  8.26180e+05 -9.57572e+05  5.82774e+02  0.00000e+00 -1.30809e+05 -2.27859e+03 -1.33088e+05  3.42865e-01  1.00000e+00  1.99950e+01  0.00000e+00  1.37204e+01 
 9.42012e-03  8.24144e-03  0.00000e+00  3.47944e+00  2.61486e-04  3.60111e+02  3.60054e+02  3.47342e+00  3.50723e+00  3.52335e-01 -4.12129e+01  1.33285e+02  9.34920e+05 -1.09011e+06  5.85699e+02  0.00000e+00 -1.54607e+05 -4.83851e+03 -1.59446e+05  3.52361e-01  1.00000e+00  4.20641e+01  0.00000e+00  1.65973e+01 
 9.62949e-03  8.47996e-03  0.00000e+00  3.47944e+00  2.48755e-04  3.60139e+02  3.60055e+02  3.35462e+00  3.38511e+00  3.61773e-01 -7.46104e+01  1.40108e+02  1.09344e+06 -1.27999e+06  5.93683e+02  0.00000e+00 -1.85950e+05 -8.89651e+03 -1.94847e+05  3.61801e-01  1.00000e+00  7.55473e+01  0.00000e+00  2.07860e+01 
 9.84019e-03  8.71849e-03  0.00000e+00  3.47944e+00  2.32967e-04  3.60180e+02  3.60055e+02  3.18618e+00  3.21394e+00  3.71255e-01 -1.32224e+02  1.49605e+02  1.32746e+06 -1.55936e+06  6.02749e+02  0.00000e+00 -2.31298e+05 -1.63304e+04 -2.47628e+05  3.71281e-01  1.00000e+00  1.33274e+02  0.00000e+00  2.70243e+01 
 1.00521e-02  8.95702e-03  0.00000e+00  3.47944e+00  2.13440e-04  3.60250e+02  3.60056e+02  3.01018e+00  3.03561e+00  3.80786e-01 -2.50383e+02  1.63292e+02  1.72947e+06 -2.00634e+06  6.16102e+02  0.00000e+00 -2.76254e+05 -3.28070e+04 -3.09061e+05  3.80815e-01  1.00000e+00  2.51595e+02  0.00000e+00  3.85314e+01 
 1.02653e-02  9.19555e-03  0.00000e+00  3.47944e+00  1.90737e-04  3.60401e+02  3.60057e+02  2.70777e+00  2.73106e+00  3.91062e-01 -5.55484e+02  1.82732e+02  2.48530e+06 -2.74453e+06  6.15130e+02  0.00000e+00 -2.58611e+05 -7.91311e+04 -3.37742e+05  3.91090e-01  1.00000e+00  5.56926e+02  0.00000e+00  6.38967e+01 
 1.04795e-02  9.43408e-03  0.00000e+00  3.47944e+00  1.67805e-04  3.60887e+02  3.60058e+02  2.25548e+00  2.27136e+00  4.04472e-01 -4.88263e+03  2.07707e+02  4.30630e+06 -3.75736e+06  6.04595e+02  1.27619e+06  1.82573e+06 -1.84632e+06 -2.05906e+04  4.04517e-01  1.00000e+00  4.88438e+03  3.16562e+03  1.61554e+02 
