# Code_Saturne plot output (1D profile)
#
# Iteration output: 1140
# Time output:      2.30026e+01
#
#COLUMN_TITLES: Distance | X | Y | Z | diameter_Field2 | temp_Field1 | temp_Field2 | Velocity_Field1[Z] | Velocity_Field2[Z] | vol_f_Field2 | mass_trans_Field1 | Xd_Field2 | BK | COAL | COMP | NUCL | W1 | MT | SMBR | ALPBB | CONDNUM | GAMA | GAMANUC | epsilon_Field1
 4.56474e-03  1.39645e-04  0.00000e+00  3.47944e+00  1.00000e-05  3.50882e+02  3.60062e+02  3.32319e+00  3.32357e+00  0.00000e+00  1.96293e-14  3.48519e+03  0.00000e+00 -2.98057e-10  9.82145e+03  0.00000e+00  9.82145e+03  2.64102e-05  5.36385e+08  3.44224e-19  3.44224e-13 -1.96291e-14  0.00000e+00  1.91540e-01 
 4.57812e-03  3.76525e-04  4.25872e-21  3.47944e+00  1.00000e-05  3.50887e+02  3.60062e+02  3.32308e+00  3.32346e+00  0.00000e+00  1.98920e-14  3.48519e+03  0.00000e+00 -3.02898e-10  9.82099e+03  0.00000e+00  9.82099e+03  2.67641e-05  5.29476e+08  3.48846e-19  3.48846e-13 -1.98922e-14  0.00000e+00  1.93159e-01 
 4.60371e-03  6.13858e-04  0.00000e+00  3.47944e+00  1.00000e-05  3.50896e+02  3.60062e+02  3.32167e+00  3.32205e+00  0.00000e+00  1.97709e-14  3.48519e+03  0.00000e+00 -3.00797e-10  9.81668e+03  0.00000e+00  9.81668e+03  2.66012e-05  5.37460e+08  3.44555e-19  3.44555e-13 -1.97711e-14  0.00000e+00  1.96359e-01 
 4.64138e-03  8.51483e-04  0.00000e+00  3.47944e+00  1.00000e-05  3.50909e+02  3.60062e+02  3.31952e+00  3.31989e+00  0.00000e+00  1.59721e-14  3.48519e+03  0.00000e+00 -2.43551e-10  9.81007e+03  0.00000e+00  9.81007e+03  2.14897e-05  6.76491e+08  2.76763e-19  2.76763e-13 -1.59721e-14  0.00000e+00  2.01173e-01 
 4.69084e-03  1.08931e-03  0.00000e+00  3.47944e+00  1.00000e-05  3.50926e+02  3.60062e+02  3.31691e+00  3.31729e+00  0.00000e+00  0.00000e+00  3.48519e+03  0.00000e+00 -8.89263e-12  9.80080e+03  0.00000e+00  9.80080e+03  0.00000e+00  1.91430e+10  1.00000e-20  0.00000e+00  0.00000e+00  0.00000e+00  2.07670e-01 
 4.75174e-03  1.32727e-03  1.05001e-20  3.47944e+00  1.00000e-05  3.50948e+02  3.60062e+02  3.31347e+00  3.31385e+00  0.00000e+00  8.95461e-14  3.48519e+03  0.00000e+00 -1.44293e-09  9.78942e+03  0.00000e+00  9.78942e+03  1.20480e-04  1.19372e+08  1.60190e-18  1.60190e-12 -8.95461e-14  0.00000e+00  2.15928e-01 
 4.82366e-03  1.56534e-03  0.00000e+00  3.47944e+00  1.00000e-05  3.50974e+02  3.60062e+02  3.30937e+00  3.30975e+00  0.00000e+00  8.48877e-13  3.48519e+03  0.00000e+00 -1.39152e-08  9.77280e+03  0.00000e+00  9.77280e+03  1.14213e-03  1.15914e+07  1.52171e-17  1.52171e-11 -8.48877e-13  0.00000e+00  2.26037e-01 
 4.90611e-03  1.80349e-03  8.81027e-21  3.47944e+00  1.00000e-05  3.51005e+02  3.60062e+02  3.30460e+00  3.30497e+00  0.00000e+00  4.05522e-13  3.48519e+03  0.00000e+00 -6.76604e-09  9.76733e+03  0.00000e+00  9.76733e+03  5.45613e-04  2.38593e+07  7.27329e-18  7.27329e-12 -4.05522e-13  0.00000e+00  2.38119e-01 
 4.99859e-03  2.04170e-03  0.00000e+00  3.47944e+00  1.00000e-05  3.51040e+02  3.60062e+02  3.29914e+00  3.29951e+00  0.00000e+00  3.26278e-13  3.48520e+03  0.00000e+00 -5.53933e-09  9.74868e+03  0.00000e+00  9.74868e+03  4.38994e-04  2.97305e+07  5.84216e-18  5.84216e-12 -3.26278e-13  0.00000e+00  2.52312e-01 
 5.10055e-03  2.27996e-03  7.58893e-21  3.47944e+00  1.00000e-05  3.51080e+02  3.60062e+02  3.29260e+00  3.29297e+00  0.00000e+00  1.32514e-13  3.48520e+03  0.00000e+00 -2.29489e-09  9.69448e+03  0.00000e+00  9.69448e+03  1.78292e-04  7.29937e+07  2.37059e-18  2.37059e-12 -1.32514e-13  0.00000e+00  2.68746e-01 
 5.21143e-03  2.51826e-03  7.09702e-21  3.47944e+00  1.00000e-05  3.51124e+02  3.60062e+02  3.28595e+00  3.28632e+00  4.85215e-20  6.90551e-14  3.48520e+03  0.00000e+00 -1.22006e-09  9.32872e+03  0.00000e+00  9.32872e+03  9.29110e-05  1.54238e+08  1.23245e-18  1.23245e-12 -6.90552e-14  0.00000e+00  2.87628e-01 
 5.33068e-03  2.75659e-03  1.33300e-20  3.47944e+00  1.00000e-05  3.51173e+02  3.60062e+02  3.27761e+00  3.27798e+00  2.70978e-19  8.33130e-14  3.48520e+03  0.00000e+00 -1.51076e-09  5.22534e+03  0.00000e+00  5.22534e+03  1.12094e-04  1.29228e+08  1.49033e-18  1.49033e-12 -8.33128e-14  0.00000e+00  3.09128e-01 
 5.45775e-03  2.99495e-03  1.25651e-20  3.47944e+00  1.00000e-05  3.51227e+02  3.60062e+02  3.26910e+00  3.26947e+00  9.86295e-19  1.42626e-13  3.48520e+03  0.00000e+00 -2.65645e-09  9.64071e+03  0.00000e+00  9.64071e+03  1.91897e-04  7.59569e+07  2.55610e-18  2.55610e-12 -1.42626e-13  0.00000e+00  3.33431e-01 
 5.59212e-03  3.23333e-03  0.00000e+00  3.47944e+00  1.00000e-05  3.51285e+02  3.60062e+02  3.25926e+00  3.25963e+00  4.55010e-18  5.55991e-13  3.48520e+03  0.00000e+00 -1.06445e-08  9.59917e+03  0.00000e+00  9.59917e+03  7.48064e-04  1.96690e+07  9.97994e-18  9.97994e-12 -5.55991e-13  0.00000e+00  3.60818e-01 
 5.73326e-03  3.47172e-03  0.00000e+00  3.47944e+00  1.00000e-05  3.51348e+02  3.60062e+02  3.24858e+00  3.24895e+00  2.17383e-17  2.54718e-12  3.48520e+03 2.14380e-274 -5.01353e-08  9.58591e+03  0.00000e+00  9.58591e+03  3.42714e-03  4.22563e+06  4.57614e-17  4.57614e-11 -2.54718e-12  0.00000e+00  3.91491e-01 
 5.88069e-03  3.71014e-03 -5.35987e-21  3.47944e+00  1.00000e-05  3.51416e+02  3.60062e+02  3.23720e+00  3.23757e+00  1.02061e-16  1.15842e-11  3.48521e+03 6.27363e-259 -2.34410e-07  9.54571e+03  0.00000e+00  9.54571e+03  1.55861e-02  9.21478e+05  2.08127e-16  2.08127e-10 -1.15842e-11  0.00000e+00  4.25838e-01 
 6.03395e-03  3.94857e-03  5.10973e-21  3.47944e+00  1.00000e-05  3.51488e+02  3.60062e+02  3.22422e+00  3.22459e+00  4.70294e-16  5.13301e-11  3.48521e+03 5.73761e-244 -1.06696e-06  9.48940e+03  0.00000e+00  9.48940e+03  6.90627e-02  1.95410e+05  9.20909e-16  9.20909e-10 -5.13301e-11  0.00000e+00  4.64129e-01 
 6.19261e-03  4.18701e-03  0.00000e+00  3.47944e+00  1.00000e-05  3.51565e+02  3.60062e+02  3.21022e+00  3.21059e+00  2.13676e-15  2.26149e-10  3.48521e+03 1.32960e-229 -4.84457e-06  9.36998e+03  0.00000e+00  9.36998e+03  3.04276e-01  4.27796e+04  4.06287e-15  4.06287e-09 -2.26149e-10  0.00000e+00  5.06622e-01 
 6.35626e-03  4.42546e-03  0.00000e+00  3.47944e+00  1.00000e-05  3.51648e+02  3.60062e+02  3.19561e+00  3.19597e+00  9.56212e-15  9.78112e-10  3.48521e+03 8.57924e-216 -2.15791e-05  9.33964e+03  0.00000e+00  9.33964e+03  1.31602e+00  9.92127e+03  1.75743e-14  1.75743e-08 -9.78112e-10  0.00000e+00  5.53962e-01 
 6.52453e-03  4.66392e-03 -8.96437e-21  3.47944e+00  1.00000e-05  3.51735e+02  3.60062e+02  3.17963e+00  3.17999e+00  4.20555e-14  4.14886e-09  3.48521e+03 1.61572e-202 -9.44314e-05  9.31727e+03  0.00000e+00  9.31727e+03  5.58215e+00  2.33784e+03  7.46390e-14  7.46390e-08 -4.14886e-09  0.00000e+00  6.06853e-01 
 6.69707e-03  4.90238e-03  1.72236e-20  3.47944e+00  1.00000e-05  3.51828e+02  3.60062e+02  3.16104e+00  3.16139e+00  1.81400e-13  1.73692e-08  3.48522e+03 6.37152e-190 -4.08227e-04  9.32833e+03  0.00000e+00  9.32833e+03  2.33697e+01  5.56190e+02  3.13077e-13  3.13077e-07 -1.73692e-08  0.00000e+00  6.65324e-01 
 6.87356e-03  5.14086e-03  8.28595e-21  3.47944e+00  1.00000e-05  3.51926e+02  3.60062e+02  3.14352e+00  3.14385e+00  7.88583e-13  7.51430e-08  3.48522e+03 7.42881e-178 -1.81340e-03  9.73675e+03  0.00000e+00  9.73675e+03  1.01102e+02  1.28651e+02  1.34864e-12  1.34864e-06 -7.51430e-08  0.00000e+00  7.30713e-01 
 7.05370e-03  5.37934e-03 -1.59677e-20  3.47944e+00  1.00000e-05  3.52031e+02  3.60061e+02  3.12224e+00  3.12255e+00  3.54604e-12  3.26389e-07  3.48519e+03 2.66230e-166 -8.15215e-03  1.02896e+04  0.00000e+00  1.02896e+04  4.39141e+02  2.98800e+01  5.87587e-12  5.87587e-06 -3.26389e-07  0.00000e+00  8.04017e-01 
 7.23722e-03  5.61783e-03  0.00000e+00  3.47944e+00  1.00000e-05  3.52141e+02  3.60060e+02  3.10082e+00  3.10113e+00  1.56236e-11  1.39149e-06  3.48512e+03 2.73118e-155 -3.58999e-02  9.61983e+03  0.00000e+00  9.61980e+03  1.87215e+03  6.25384e+00  2.50655e-11  2.50655e-05 -1.39149e-06  0.00000e+00  8.86049e-01 
 7.42387e-03  5.85632e-03  0.00000e+00  3.47944e+00  1.00000e-05  3.52259e+02  3.60060e+02  3.07702e+00  3.07732e+00  6.75006e-11  5.82492e-06  3.48509e+03 9.90558e-145 -1.55360e-01  9.01013e+03  0.00000e+00  9.00998e+03  7.83697e+03  1.68469e+04  1.04999e-10  1.04999e-04 -5.82494e-06  0.00000e+00  9.78717e-01 
 7.61342e-03  6.09482e-03  0.00000e+00  3.47944e+00  1.00000e-05  3.52384e+02  3.60060e+02  3.05172e+00  3.05202e+00  2.86543e-10  2.39781e-05  3.48509e+03 1.36999e-134 -6.61692e-01  8.79701e+03  0.00000e+00  8.79635e+03  3.22606e+04  4.10570e+04  4.32501e-10  4.32501e-04 -2.39781e-05  0.00000e+00  1.08398e+00 
 7.80566e-03  6.33332e-03  0.00000e+00  3.47944e+00  1.00000e-05  3.52517e+02  3.60060e+02  3.02405e+00  3.02434e+00  1.18965e-09  9.74633e-05  3.48510e+03 7.60408e-125 -2.76764e+00  8.68397e+03  0.00000e+00  8.68120e+03  1.31129e+05  1.39811e+05  1.74787e-09  1.74787e-03 -9.74635e-05  0.00000e+00  1.20418e+00 
 8.00039e-03  6.57182e-03  0.00000e+00  3.47944e+00  1.00000e-05  3.52659e+02  3.60060e+02  2.99476e+00  2.99505e+00  4.89013e-09  3.88315e-04  3.48511e+03 2.14474e-115 -1.14372e+01  8.58240e+03  0.00000e+00  8.57097e+03  5.22450e+05  5.31021e+05  6.96913e-09  6.96913e-03 -3.88316e-04  0.00000e+00  1.34356e+00 
 8.19744e-03  6.81033e-03  1.31016e-20  3.47944e+00  1.00000e-05  3.52811e+02  3.60060e+02  2.96161e+00  2.96190e+00  1.97466e-08  1.51671e-03  3.48513e+03 2.83513e-106 -4.64044e+01  8.48805e+03  0.00000e+00  8.44164e+03  2.04063e+06  2.04907e+06  2.72440e-08  2.72440e-02 -1.51671e-03  0.00000e+00  1.50558e+00 
 8.39664e-03  7.04884e-03  0.00000e+00  3.47944e+00  1.00000e-05  3.52976e+02  3.60060e+02  2.92731e+00  2.92760e+00  7.88412e-08  5.85650e-03  3.48514e+03  2.40888e-97 -1.86550e+02  8.36642e+03  0.00000e+00  8.17987e+03  7.87956e+06  7.88774e+06  1.05302e-07  1.05302e-01 -5.85652e-03  0.00000e+00  1.69831e+00 
 8.59784e-03  7.28736e-03  0.00000e+00  3.47944e+00  1.00000e-05  3.53155e+02  3.60060e+02  2.88748e+00  2.88777e+00  3.08038e-07  2.20802e-02  3.48515e+03  1.27476e-88 -7.34088e+02  8.24197e+03  0.00000e+00  7.50788e+03  2.97076e+07  2.97151e+07  3.97462e-07  3.97462e-01 -2.20802e-02  0.00000e+00  1.92980e+00 
 8.80092e-03  7.52587e-03  0.00000e+00  3.47944e+00  1.00000e-05  3.53350e+02  3.60061e+02  2.84563e+00  2.84591e+00  1.19370e-06  8.29743e-02  3.48516e+03  5.52198e-80 -2.88938e+03  8.09877e+03  0.00000e+00  5.20939e+03  7.46454e+07  7.46506e+07  1.49557e-06  1.00000e+00 -8.29745e-02  0.00000e+00  2.21569e+00 
 9.00573e-03  7.76439e-03 -1.17014e-20  3.47944e+00  1.00000e-05  3.53567e+02  3.60061e+02  2.79638e+00  2.79667e+00  4.50471e-06  3.06862e-01  3.48517e+03  1.90696e-71 -1.11590e+04  7.94722e+03  0.00000e+00 -3.21180e+03  7.50622e+07  7.50590e+07  5.50034e-06  1.00000e+00 -3.06863e-01  0.00000e+00  2.57494e+00 
 9.21216e-03  8.00291e-03  0.00000e+00  3.47944e+00  1.00000e-05  3.53810e+02  3.60061e+02  2.74284e+00  2.74314e+00  1.70244e-05  1.11992e+00  3.48518e+03  7.33782e-63 -4.30931e+04  7.76645e+03  0.00000e+00 -3.53266e+04  7.49177e+07  7.48823e+07  2.01128e-05  1.00000e+00 -1.11993e+00  0.00000e+00  3.04545e+00 
 9.42012e-03  8.24144e-03  0.00000e+00  3.47944e+00  1.00000e-05  3.54089e+02  3.60061e+02  2.68043e+00  2.68073e+00  6.22559e-05  4.00235e+00  3.48519e+03  3.92275e-54 -1.63148e+05  7.47766e+03  0.00000e+00 -1.55671e+05  7.52727e+07  7.51170e+07  7.15399e-05  1.00000e+00 -4.00236e+00  0.00000e+00  3.69078e+00 
 9.62949e-03  8.47996e-03  0.00000e+00  3.47944e+00  1.33614e-05  3.54417e+02  3.60062e+02  2.60215e+00  2.60272e+00  1.72468e-04  1.06898e+01  2.60842e+03  9.55193e-23 -2.72760e+05  5.24731e+03  0.00000e+00 -2.67513e+05  5.50817e+07  5.48141e+07  1.90221e-04  1.00000e+00 -1.06899e+01  0.00000e+00  4.61327e+00 
 9.84019e-03  8.71849e-03  0.00000e+00  3.47944e+00  1.83481e-05  3.54818e+02  3.60062e+02  2.51936e+00  2.52033e+00  4.31768e-04  2.63548e+01  1.89950e+03  1.31112e-06 -4.31079e+05  3.63696e+03  0.00000e+00 -4.27442e+05  4.06369e+07  4.02095e+07  4.65840e-04  1.00000e+00 -2.63549e+01  0.00000e+00  6.11688e+00 
 1.00521e-02  8.95702e-03  0.00000e+00  3.47944e+00  2.44851e-05  3.55332e+02  3.60062e+02  2.38290e+00  2.38437e+00  1.15765e-03  6.76908e+01  1.42341e+03  6.38635e+01 -7.83487e+05  2.60840e+03  0.00000e+00 -7.80815e+05  3.00826e+07  2.93017e+07  1.22049e-03  1.00000e+00 -6.76911e+01  0.00000e+00  8.76147e+00 
 1.02653e-02  9.19555e-03  0.00000e+00  3.47944e+00  3.23324e-05  3.56065e+02  3.60062e+02  2.23482e+00  2.23747e+00  3.64854e-03  2.11725e+02  1.07795e+03  5.02667e+05 -1.80131e+06  1.78529e+03  0.00000e+00 -1.29686e+06  2.30472e+07  2.17503e+07  3.78448e-03  1.00000e+00 -2.11726e+02  0.00000e+00  1.52121e+01 
 1.04795e-02  9.43408e-03  0.00000e+00  3.47944e+00  4.29202e-05  3.57339e+02  3.60063e+02  1.88269e+00  1.88489e+00  1.51767e-02 -2.99940e+02  8.12040e+02  2.57497e+07 -6.08204e+06  1.29576e+03  2.38936e+07  4.35625e+07 -4.34596e+07  1.02919e+05  1.52765e-02  1.00000e+00  2.99936e+02  1.05339e+03  3.94598e+01 
