# Code_Saturne plot output (1D profile)
#
# Iteration output: 2301
# Time output:      2.30025e+01
#
#COLUMN_TITLES: Distance | X | Y | Z | diameter_Field2 | temp_Field1 | temp_Field2 | Velocity_Field1[Z] | Velocity_Field2[Z] | vol_f_Field2 | mass_trans_Field1 | Xd_Field2 | BK | COAL | COMP | NUCL | W1 | MT | SMBR | ALPBB | CONDNUM | GAMA | GAMANUC | epsilon_Field1
 4.56474e-03  1.39645e-04  0.00000e+00  3.47944e+00  1.14272e-04  3.59702e+02  3.60053e+02  4.72864e+00  4.74979e+00  7.89251e-02  7.85350e+01  3.04948e+02  3.83718e+03 -1.49561e+06  1.90158e+03  0.00000e+00 -1.48987e+06  1.69502e+05 -1.32037e+06  7.89228e-02  1.00000e+00 -7.85023e+01  0.00000e+00  5.06666e-01 
 4.57812e-03  3.76525e-04  4.25872e-21  3.47944e+00  1.57783e-04  3.59703e+02  3.60053e+02  4.72802e+00  4.75941e+00  7.98037e-02  5.14013e+01  2.20854e+02  7.36020e+04 -8.71098e+05  1.37941e+03  0.00000e+00 -7.96117e+05  7.94634e+04 -7.16654e+05  7.98006e-02  1.00000e+00 -5.13795e+01  0.00000e+00  5.13084e-01 
 4.60371e-03  6.13858e-04  0.00000e+00  3.47944e+00  1.85344e-04  3.59705e+02  3.60053e+02  4.72647e+00  4.76442e+00  8.14786e-02  4.22094e+01  1.88012e+02  1.67514e+05 -6.78548e+05  1.17565e+03  0.00000e+00 -5.09859e+05  5.44085e+04 -4.55450e+05  8.14753e-02  1.00000e+00 -4.21913e+01  0.00000e+00  5.25559e-01 
 4.64138e-03  8.51483e-04  0.00000e+00  3.47944e+00  2.01817e-04  3.59709e+02  3.60053e+02  4.72427e+00  4.76607e+00  8.39157e-02  3.85791e+01  1.72666e+02  2.35945e+05 -6.09678e+05  1.08022e+03  0.00000e+00 -3.72652e+05  4.43440e+04 -3.28308e+05  8.39121e-02  1.00000e+00 -3.85624e+01  0.00000e+00  5.44341e-01 
 4.69084e-03  1.08931e-03  0.00000e+00  3.47944e+00  2.12095e-04  3.59714e+02  3.60053e+02  4.72129e+00  4.76538e+00  8.71666e-02  3.71456e+01  1.64299e+02  2.88919e+05 -5.89283e+05  1.02788e+03  0.00000e+00 -2.99336e+05  3.91117e+04 -2.60225e+05  8.71634e-02  1.00000e+00 -3.71292e+01  0.00000e+00  5.69793e-01 
 4.75174e-03  1.32727e-03  1.05001e-20  3.47944e+00  2.18925e-04  3.59722e+02  3.60053e+02  4.71752e+00  4.76298e+00  9.12558e-02  3.67697e+01  1.59173e+02  3.36726e+05 -5.93982e+05  9.95488e+02  0.00000e+00 -2.56260e+05  3.58267e+04 -2.20434e+05  9.12531e-02  1.00000e+00 -3.67531e+01  0.00000e+00  6.02490e-01 
 4.82366e-03  1.56534e-03  0.00000e+00  3.47944e+00  2.23865e-04  3.59730e+02  3.60053e+02  4.71291e+00  4.75921e+00  9.62167e-02  3.69583e+01  1.55661e+02  3.85068e+05 -6.14605e+05  9.72953e+02  0.00000e+00 -2.28565e+05  3.33996e+04 -1.95165e+05  9.62147e-02  1.00000e+00 -3.69413e+01  0.00000e+00  6.43172e-01 
 4.90611e-03  1.80349e-03  8.81027e-21  3.47944e+00  2.27816e-04  3.59740e+02  3.60053e+02  4.70739e+00  4.75423e+00  1.02076e-01  3.74501e+01  1.52961e+02  4.36922e+05 -6.46958e+05  9.55316e+02  0.00000e+00 -2.09080e+05  3.13474e+04 -1.77733e+05  1.02075e-01  1.00000e+00 -3.74323e+01  0.00000e+00  6.92764e-01 
 4.99859e-03  2.04170e-03  0.00000e+00  3.47944e+00  2.31326e-04  3.59752e+02  3.60053e+02  4.70087e+00  4.74810e+00  1.08858e-01  3.80798e+01  1.50640e+02  4.93759e+05 -6.88845e+05  9.39889e+02  0.00000e+00 -1.94145e+05  2.94348e+04 -1.64710e+05  1.08857e-01  1.00000e+00 -3.80611e+01  0.00000e+00  7.52375e-01 
 5.10055e-03  2.27996e-03  7.58893e-21  3.47944e+00  2.34754e-04  3.59765e+02  3.60053e+02  4.69327e+00  4.74079e+00  1.16572e-01  3.87221e+01  1.48441e+02  5.56108e+05 -7.38829e+05  9.25053e+02  0.00000e+00 -1.81796e+05  2.75413e+04 -1.54255e+05  1.16573e-01  1.00000e+00 -3.87023e+01  0.00000e+00  8.23320e-01 
 5.21143e-03  2.51826e-03  7.09702e-21  3.47944e+00  2.38358e-04  3.59778e+02  3.60053e+02  4.68445e+00  4.73224e+00  1.25216e-01  3.92698e+01  1.46196e+02  6.23773e+05 -7.95625e+05  9.09750e+02  0.00000e+00 -1.70942e+05  2.56083e+04 -1.45334e+05  1.25220e-01  1.00000e+00 -3.92488e+01  0.00000e+00  9.07113e-01 
 5.33068e-03  2.75659e-03  1.33300e-20  3.47944e+00  2.42337e-04  3.59793e+02  3.60053e+02  4.67426e+00  4.72234e+00  1.34759e-01  3.96242e+01  1.43795e+02  6.95935e+05 -8.57764e+05  8.93258e+02  0.00000e+00 -1.60935e+05  2.36140e+04 -1.37321e+05  1.34764e-01  1.00000e+00 -3.96019e+01  0.00000e+00  1.00548e+00 
 5.45775e-03  2.99495e-03  1.25651e-20  3.47944e+00  2.46857e-04  3.59808e+02  3.60053e+02  4.66251e+00  4.71096e+00  1.45156e-01  3.97011e+01  1.41163e+02  7.71169e+05 -9.23587e+05  8.75154e+02  0.00000e+00 -1.51543e+05  2.15621e+04 -1.29981e+05  1.45162e-01  1.00000e+00 -3.96776e+01  0.00000e+00  1.12033e+00 
 5.59212e-03  3.23333e-03  0.00000e+00  3.47944e+00  2.52045e-04  3.59823e+02  3.60053e+02  4.64901e+00  4.69791e+00  1.56320e-01  3.94291e+01  1.38257e+02  8.47601e+05 -9.91072e+05  8.55230e+02  0.00000e+00 -1.42616e+05  1.94755e+04 -1.23140e+05  1.56324e-01  1.00000e+00 -3.94043e+01  0.00000e+00  1.25376e+00 
 5.73326e-03  3.47172e-03  0.00000e+00  3.47944e+00  2.57997e-04  3.59839e+02  3.60053e+02  4.63353e+00  4.68299e+00  1.68146e-01  3.87574e+01  1.35068e+02  9.22998e+05 -1.05794e+06  8.33283e+02  0.00000e+00 -1.34108e+05  1.73865e+04 -1.16722e+05  1.68148e-01  1.00000e+00 -3.87314e+01  0.00000e+00  1.40795e+00 
 5.88069e-03  3.71014e-03 -5.35987e-21  3.47944e+00  2.64759e-04  3.59855e+02  3.60053e+02  4.61586e+00  4.66598e+00  1.80478e-01  3.76620e+01  1.31618e+02  9.95109e+05 -1.12182e+06  8.09529e+02  0.00000e+00 -1.25899e+05  1.53384e+04 -1.10561e+05  1.80476e-01  1.00000e+00 -3.76349e+01  0.00000e+00  1.58522e+00 
 6.03395e-03  3.94857e-03  5.10973e-21  3.47944e+00  2.72330e-04  3.59871e+02  3.60053e+02  4.59576e+00  4.64664e+00  1.93193e-01  3.61582e+01  1.27959e+02  1.06178e+06 -1.18086e+06  7.84216e+02  0.00000e+00 -1.18296e+05  1.33737e+04 -1.04923e+05  1.93190e-01  1.00000e+00 -3.61301e+01  0.00000e+00  1.78785e+00 
 6.19261e-03  4.18701e-03  0.00000e+00  3.47944e+00  2.80633e-04  3.59887e+02  3.60053e+02  4.57305e+00  4.62478e+00  2.06086e-01  3.42807e+01  1.24174e+02  1.12153e+06 -1.23339e+06  7.57853e+02  0.00000e+00 -1.11101e+05  1.15334e+04 -9.95675e+04  2.06086e-01  1.00000e+00 -3.42518e+01  0.00000e+00  2.01821e+00 
 6.35626e-03  4.42546e-03  0.00000e+00  3.47944e+00  2.89535e-04  3.59903e+02  3.60053e+02  4.54757e+00  4.60021e+00  2.19025e-01  3.20947e+01  1.20356e+02  1.17345e+06 -1.27872e+06  7.31081e+02  0.00000e+00 -1.04543e+05  9.84687e+03 -9.46959e+04  2.19027e-01  1.00000e+00 -3.20651e+01  0.00000e+00  2.27848e+00 
 6.52453e-03  4.66392e-03 -8.96437e-21  3.47944e+00  2.98804e-04  3.59918e+02  3.60053e+02  4.51924e+00  4.57282e+00  2.31803e-01  2.96748e+01  1.16623e+02  1.21788e+06 -1.31688e+06  7.04606e+02  0.00000e+00 -9.82980e+04  8.33493e+03 -8.99630e+04  2.31806e-01  1.00000e+00 -2.96447e+01  0.00000e+00  2.57125e+00 
 6.69707e-03  4.90238e-03  1.72236e-20  3.47944e+00  3.08179e-04  3.59933e+02  3.60053e+02  4.48799e+00  4.54247e+00  2.44357e-01  2.71054e+01  1.13075e+02  1.25561e+06 -1.34913e+06  6.79067e+02  0.00000e+00 -9.28438e+04  7.00163e+03 -8.58421e+04  2.44360e-01  1.00000e+00 -2.70747e+01  0.00000e+00  2.89891e+00 
 6.87356e-03  5.14086e-03  8.28595e-21  3.47944e+00  3.17298e-04  3.59948e+02  3.60053e+02  4.45383e+00  4.50914e+00  2.56495e-01  2.44552e+01  1.09826e+02  1.28888e+06 -1.37715e+06  6.55114e+02  0.00000e+00 -8.76146e+04  5.84442e+03 -8.17701e+04  2.56498e-01  1.00000e+00 -2.44242e+01  0.00000e+00  3.26513e+00 
 7.05370e-03  5.37934e-03 -1.59677e-20  3.47944e+00  3.25849e-04  3.59962e+02  3.60053e+02  4.41669e+00  4.47270e+00  2.68263e-01  2.17837e+01  1.06944e+02  1.31956e+06 -1.40357e+06  6.33172e+02  0.00000e+00 -8.33798e+04  4.84617e+03 -7.85336e+04  2.68266e-01  1.00000e+00 -2.17523e+01  0.00000e+00  3.67339e+00 
 7.23722e-03  5.61783e-03  0.00000e+00  3.47944e+00  3.33432e-04  3.59977e+02  3.60053e+02  4.37660e+00  4.43312e+00  2.79494e-01  1.91236e+01  1.04512e+02  1.35104e+06 -1.43101e+06  6.13656e+02  0.00000e+00 -7.93572e+04  3.98970e+03 -7.53675e+04  2.79497e-01  1.00000e+00 -1.90918e+01  0.00000e+00  4.13028e+00 
 7.42387e-03  5.85632e-03  0.00000e+00  3.47944e+00  3.39818e-04  3.59990e+02  3.60053e+02  4.33333e+00  4.39011e+00  2.90336e-01  1.64880e+01  1.02548e+02  1.38514e+06 -1.46236e+06  5.96657e+02  0.00000e+00 -7.66261e+04  3.24820e+03 -7.33779e+04  2.90340e-01  1.00000e+00 -1.64557e+01  0.00000e+00  4.64154e+00 
 7.61342e-03  6.09482e-03  0.00000e+00  3.47944e+00  3.44666e-04  3.60004e+02  3.60053e+02  4.28686e+00  4.34361e+00  3.00612e-01  1.38691e+01  1.01106e+02  1.42573e+06 -1.50039e+06  5.82342e+02  0.00000e+00 -7.40739e+04  2.60070e+03 -7.14732e+04  3.00615e-01  1.00000e+00 -1.38362e+01  0.00000e+00  5.21935e+00 
 7.80566e-03  6.33332e-03  0.00000e+00  3.47944e+00  3.47921e-04  3.60017e+02  3.60054e+02  4.23661e+00  4.29302e+00  3.10578e-01  1.12391e+01  1.00161e+02  1.47383e+06 -1.54771e+06  5.70524e+02  0.00000e+00 -7.33107e+04  2.01957e+03 -7.12911e+04  3.10582e-01  1.00000e+00 -1.12055e+01  0.00000e+00  5.87294e+00 
 8.00039e-03  6.57182e-03  0.00000e+00  3.47944e+00  3.49299e-04  3.60030e+02  3.60054e+02  4.18269e+00  4.23842e+00  3.19992e-01  8.55808e+00  9.97663e+01  1.53433e+06 -1.60755e+06  5.61275e+02  0.00000e+00 -7.26563e+04  1.48513e+03 -7.11712e+04  3.19997e-01  1.00000e+00 -8.52357e+00  0.00000e+00  6.62530e+00 
 8.19744e-03  6.81033e-03  1.31016e-20  3.47944e+00  3.48923e-04  3.60042e+02  3.60054e+02  4.12376e+00  4.17846e+00  3.29219e-01  5.76273e+00  9.98743e+01  1.60746e+06 -1.68252e+06  5.54256e+02  0.00000e+00 -7.45072e+04  9.70959e+02 -7.35362e+04  3.29225e-01  1.00000e+00 -5.72709e+00  0.00000e+00  7.49116e+00 
 8.39664e-03  7.04884e-03  0.00000e+00  3.47944e+00  3.46485e-04  3.60055e+02  3.60054e+02  4.06066e+00  4.11399e+00  3.37941e-01  2.77782e+00  1.00578e+02  1.70081e+06 -1.77786e+06  5.49627e+02  0.00000e+00 -7.64981e+04  4.55867e+02 -7.60422e+04  3.37947e-01  1.00000e+00 -2.74082e+00  0.00000e+00  8.51644e+00 
 8.59784e-03  7.28736e-03  0.00000e+00  3.47944e+00  3.42246e-04  3.60068e+02  3.60054e+02  3.98990e+00  4.04149e+00  3.46612e-01 -1.22526e+00  1.01824e+02  1.81449e+06 -1.89715e+06  5.46942e+02  0.00000e+00 -8.21181e+04 -2.14165e+02 -8.23322e+04  3.46620e-01  1.00000e+00  1.30451e+00  0.00000e+00  9.72659e+00 
 8.80092e-03  7.52587e-03  0.00000e+00  3.47944e+00  3.35770e-04  3.60081e+02  3.60055e+02  3.91504e+00  3.96457e+00  3.54856e-01 -9.68149e+00  1.03788e+02  1.96236e+06 -2.05091e+06  5.46664e+02  0.00000e+00 -8.80059e+04 -1.59601e+03 -8.96019e+04  3.54863e-01  1.00000e+00  9.76440e+00  0.00000e+00  1.12222e+01 
 9.00573e-03  7.76439e-03 -1.17014e-20  3.47944e+00  3.27308e-04  3.60096e+02  3.60055e+02  3.82643e+00  3.87354e+00  3.63166e-01 -1.99594e+01  1.06472e+02  2.14741e+06 -2.24792e+06  5.48277e+02  0.00000e+00 -9.99645e+04 -3.28449e+03 -1.03249e+05  3.63175e-01  1.00000e+00  2.00467e+01  0.00000e+00  1.30570e+01 
 9.21216e-03  8.00291e-03  0.00000e+00  3.47944e+00  3.16058e-04  3.60112e+02  3.60055e+02  3.73557e+00  3.77990e+00  3.71179e-01 -3.33946e+01  1.10263e+02  2.40075e+06 -2.51548e+06  5.53245e+02  0.00000e+00 -1.14179e+05 -5.55934e+03 -1.19738e+05  3.71186e-01  1.00000e+00  3.34873e+01  0.00000e+00  1.54839e+01 
 9.42012e-03  8.24144e-03  0.00000e+00  3.47944e+00  3.02292e-04  3.60132e+02  3.60056e+02  3.61691e+00  3.65819e+00  3.79385e-01 -5.24156e+01  1.15285e+02  2.73754e+06 -2.87905e+06  5.60256e+02  0.00000e+00 -1.40952e+05 -8.91814e+03 -1.49870e+05  3.79394e-01  1.00000e+00  5.25151e+01  0.00000e+00  1.86670e+01 
 9.62949e-03  8.47996e-03  0.00000e+00  3.47944e+00  2.84653e-04  3.60158e+02  3.60056e+02  3.50002e+00  3.53787e+00  3.87553e-01 -8.23746e+01  1.22430e+02  3.24371e+06 -3.42029e+06  5.73397e+02  0.00000e+00 -1.76007e+05 -1.45619e+04 -1.90569e+05  3.87560e-01  1.00000e+00  8.24831e+01  0.00000e+00  2.33919e+01 
 9.84019e-03  8.71849e-03  0.00000e+00  3.47944e+00  2.63143e-04  3.60198e+02  3.60057e+02  3.32367e+00  3.35807e+00  3.95993e-01 -1.35360e+02  1.32439e+02  4.00941e+06 -4.25196e+06  5.89066e+02  0.00000e+00 -2.41961e+05 -2.53224e+04 -2.67284e+05  3.96001e-01  1.00000e+00  1.35480e+02  0.00000e+00  3.04888e+01 
 1.00521e-02  8.95702e-03  0.00000e+00  3.47944e+00  2.35106e-04  3.60266e+02  3.60057e+02  3.14518e+00  3.17587e+00  4.04561e-01 -2.48895e+02  1.48234e+02  5.41877e+06 -5.74797e+06  6.18429e+02  0.00000e+00 -3.28576e+05 -5.09944e+04 -3.79570e+05  4.04565e-01  1.00000e+00  2.49033e+02  0.00000e+00  4.37676e+01 
 1.02653e-02  9.19555e-03  0.00000e+00  3.47944e+00  2.00782e-04  3.60413e+02  3.60058e+02  2.82110e+00  2.84690e+00  4.14367e-01 -5.60739e+02  1.73578e+02  8.28606e+06 -8.69754e+06  6.45448e+02  0.00000e+00 -4.10826e+05 -1.31310e+05 -5.42136e+05  4.14373e-01  1.00000e+00  5.60903e+02  0.00000e+00  7.26169e+01 
 1.04795e-02  9.43408e-03  0.00000e+00  3.47944e+00  1.61833e-04  3.60891e+02  3.60059e+02  2.35604e+00  2.37195e+00  4.25916e-01 -5.24042e+03  2.15358e+02  1.63231e+07 -1.47445e+07  6.91701e+02  9.92751e+05  2.57212e+06 -2.60445e+06 -3.23304e+04  4.25913e-01  1.00000e+00  5.24062e+03  3.33332e+03  1.83939e+02 
