# Code_Saturne plot output (1D profile)
#
# Iteration output: 7829
# Time output:      2.30002e+01
#
#COLUMN_TITLES: Distance | X | Y | Z | diameter_Field2 | temp_Field1 | temp_Field2 | Velocity_Field1[Z] | Velocity_Field2[Z] | vol_f_Field2 | mass_trans_Field1 | Xd_Field2 | BK | COAL | COMP | NUCL | W1 | MT | SMBR | ALPBB | CONDNUM | GAMA | GAMANUC | epsilon_Field1
 4.56474e-03  1.39645e-04  0.00000e+00  3.47944e+00  7.71585e-04  3.60234e+02  3.60096e+02  7.33138e+00  7.47339e+00  5.81762e-01 -2.64227e+01  4.50661e+01  2.88047e+05 -2.99269e+05  8.09174e+02  0.00000e+00 -1.04130e+04 -6.58214e+02 -1.10712e+04  5.81762e-01  1.00000e+00  2.64031e+01  0.00000e+00  6.14630e+00 
 4.57812e-03  3.76525e-04  4.25872e-21  3.47944e+00  7.70216e-04  3.60234e+02  3.60096e+02  7.33041e+00  7.47277e+00  5.81845e-01 -2.64744e+01  4.51461e+01  2.89328e+05 -3.00594e+05  8.10594e+02  0.00000e+00 -1.04558e+04 -6.60578e+02 -1.11164e+04  5.81846e-01  1.00000e+00  2.64547e+01  0.00000e+00  6.17682e+00 
 4.60371e-03  6.13858e-04  0.00000e+00  3.47944e+00  7.67557e-04  3.60234e+02  3.60096e+02  7.32651e+00  7.46845e+00  5.82022e-01 -2.65404e+01  4.53025e+01  2.91824e+05 -3.03201e+05  8.13048e+02  0.00000e+00 -1.05645e+04 -6.64314e+02 -1.12288e+04  5.82022e-01  1.00000e+00  2.65206e+01  0.00000e+00  6.23645e+00 
 4.64138e-03  8.51483e-04  0.00000e+00  3.47944e+00  7.63672e-04  3.60233e+02  3.60096e+02  7.32101e+00  7.46211e+00  5.82295e-01 -2.66288e+01  4.55330e+01  2.95527e+05 -3.07064e+05  8.16635e+02  0.00000e+00 -1.07203e+04 -6.69601e+02 -1.13899e+04  5.82296e-01  1.00000e+00  2.66088e+01  0.00000e+00  6.32568e+00 
 4.69084e-03  1.08931e-03  0.00000e+00  3.47944e+00  7.58558e-04  3.60233e+02  3.60096e+02  7.31351e+00  7.45345e+00  5.82655e-01 -2.67446e+01  4.58400e+01  3.00503e+05 -3.12255e+05  8.21372e+02  0.00000e+00 -1.09305e+04 -6.76627e+02 -1.16071e+04  5.82655e-01  1.00000e+00  2.67245e+01  0.00000e+00  6.44569e+00 
 4.75174e-03  1.32727e-03  1.05001e-20  3.47944e+00  7.52284e-04  3.60232e+02  3.60096e+02  7.30416e+00  7.44266e+00  5.83111e-01 -2.68871e+01  4.62223e+01  3.06770e+05 -3.18792e+05  8.27260e+02  0.00000e+00 -1.11950e+04 -6.85366e+02 -1.18804e+04  5.83111e-01  1.00000e+00  2.68667e+01  0.00000e+00  6.59761e+00 
 4.82366e-03  1.56534e-03  0.00000e+00  3.47944e+00  7.44890e-04  3.60231e+02  3.60096e+02  7.29286e+00  7.42965e+00  5.83658e-01 -2.70566e+01  4.66812e+01  3.14390e+05 -3.26745e+05  8.34292e+02  0.00000e+00 -1.15198e+04 -6.95877e+02 -1.22157e+04  5.83657e-01  1.00000e+00  2.70359e+01  0.00000e+00  6.78310e+00 
 4.90611e-03  1.80349e-03  8.81027e-21  3.47944e+00  7.36442e-04  3.60230e+02  3.60096e+02  7.27963e+00  7.41443e+00  5.84298e-01 -2.72523e+01  4.72167e+01  3.23424e+05 -3.36172e+05  8.42441e+02  0.00000e+00 -1.19057e+04 -7.08171e+02 -1.26138e+04  5.84297e-01  1.00000e+00  2.72313e+01  0.00000e+00  7.00412e+00 
 4.99859e-03  2.04170e-03  0.00000e+00  3.47944e+00  7.27009e-04  3.60229e+02  3.60096e+02  7.26440e+00  7.39698e+00  5.85026e-01 -2.74739e+01  4.78294e+01  3.33943e+05 -3.47156e+05  8.51712e+02  0.00000e+00 -1.23610e+04 -7.22287e+02 -1.30832e+04  5.85025e-01  1.00000e+00  2.74525e+01  0.00000e+00  7.26262e+00 
 5.10055e-03  2.27996e-03  7.58893e-21  3.47944e+00  7.16669e-04  3.60228e+02  3.60096e+02  7.24709e+00  7.37722e+00  5.85846e-01 -2.77204e+01  4.85196e+01  3.46044e+05 -3.59766e+05  8.61994e+02  0.00000e+00 -1.28597e+04 -7.38241e+02 -1.35979e+04  5.85845e-01  1.00000e+00  2.76985e+01  0.00000e+00  7.56234e+00 
 5.21143e-03  2.51826e-03  7.09702e-21  3.47944e+00  7.05504e-04  3.60226e+02  3.60096e+02  7.22769e+00  7.35515e+00  5.86729e-01 -2.79912e+01  4.92875e+01  3.59826e+05 -3.74098e+05  8.73388e+02  0.00000e+00 -1.33983e+04 -7.56102e+02 -1.41544e+04  5.86728e-01  1.00000e+00  2.79688e+01  0.00000e+00  7.90521e+00 
 5.33068e-03  2.75659e-03  1.33300e-20  3.47944e+00  6.93598e-04  3.60225e+02  3.60096e+02  7.20607e+00  7.33069e+00  5.87697e-01 -2.82851e+01  5.01336e+01  3.75395e+05 -3.90264e+05  8.85798e+02  0.00000e+00 -1.39830e+04 -7.75869e+02 -1.47589e+04  5.87697e-01  1.00000e+00  2.82621e+01  0.00000e+00  8.29567e+00 
 5.45775e-03  2.99495e-03  1.25651e-20  3.47944e+00  6.81037e-04  3.60223e+02  3.60097e+02  7.18215e+00  7.30376e+00  5.88722e-01 -2.86021e+01  5.10585e+01  3.92886e+05 -4.08374e+05  8.99271e+02  0.00000e+00 -1.45889e+04 -7.97637e+02 -1.53865e+04  5.88722e-01  1.00000e+00  2.85785e+01  0.00000e+00  8.73714e+00 
 5.59212e-03  3.23333e-03  0.00000e+00  3.47944e+00  6.67895e-04  3.60222e+02  3.60097e+02  7.15585e+00  7.27430e+00  5.89844e-01 -2.89412e+01  5.20633e+01  4.12433e+05 -4.28590e+05  9.13722e+02  0.00000e+00 -1.52435e+04 -8.21399e+02 -1.60649e+04  5.89843e-01  1.00000e+00  2.89169e+01  0.00000e+00  9.23552e+00 
 5.73326e-03  3.47172e-03  0.00000e+00  3.47944e+00  6.54259e-04  3.60220e+02  3.60097e+02  7.12700e+00  7.24218e+00  5.91041e-01 -2.93034e+01  5.31486e+01  4.34188e+05 -4.51066e+05  9.29159e+02  0.00000e+00 -1.59495e+04 -8.47281e+02 -1.67968e+04  5.91040e-01  1.00000e+00  2.92782e+01  0.00000e+00  9.79499e+00 
 5.88069e-03  3.71014e-03 -5.35987e-21  3.47944e+00  6.40187e-04  3.60218e+02  3.60097e+02  7.09556e+00  7.20734e+00  5.92334e-01 -2.96873e+01  5.43171e+01  4.58352e+05 -4.76022e+05  9.45572e+02  0.00000e+00 -1.67244e+04 -8.75326e+02 -1.75997e+04  5.92332e-01  1.00000e+00  2.96614e+01  0.00000e+00  1.04233e+01 
 6.03395e-03  3.94857e-03  5.10973e-21  3.47944e+00  6.25759e-04  3.60216e+02  3.60097e+02  7.06128e+00  7.16957e+00  5.93702e-01 -3.00952e+01  5.55697e+01  4.85112e+05 -5.03661e+05  9.62927e+02  0.00000e+00 -1.75860e+04 -9.05707e+02 -1.84917e+04  5.93699e-01  1.00000e+00  3.00683e+01  0.00000e+00  1.11254e+01 
 6.19261e-03  4.18701e-03  0.00000e+00  3.47944e+00  6.11014e-04  3.60214e+02  3.60098e+02  7.02416e+00  7.12888e+00  5.95155e-01 -3.05267e+01  5.69111e+01  5.14768e+05 -5.34276e+05  9.81249e+02  0.00000e+00 -1.85262e+04 -9.38552e+02 -1.94648e+04  5.95153e-01  1.00000e+00  3.04988e+01  0.00000e+00  1.19120e+01 
 6.35626e-03  4.42546e-03  0.00000e+00  3.47944e+00  5.96024e-04  3.60212e+02  3.60098e+02  6.98385e+00  7.08493e+00  5.96666e-01 -3.09862e+01  5.83427e+01  5.47562e+05 -5.68141e+05  1.00050e+03  0.00000e+00 -1.95786e+04 -9.74145e+02 -2.05527e+04  5.96666e-01  1.00000e+00  3.09572e+01  0.00000e+00  1.27894e+01 
 6.52453e-03  4.66392e-03 -8.96437e-21  3.47944e+00  5.80805e-04  3.60210e+02  3.60098e+02  6.94042e+00  7.03780e+00  5.98264e-01 -3.14755e+01  5.98719e+01  5.83916e+05 -6.05670e+05  1.02075e+03  0.00000e+00 -2.07337e+04 -1.01273e+03 -2.17464e+04  5.98265e-01  1.00000e+00  3.14453e+01  0.00000e+00  1.37735e+01 
 6.69707e-03  4.90238e-03  1.72236e-20  3.47944e+00  5.65424e-04  3.60208e+02  3.60098e+02  6.89328e+00  6.98691e+00  5.99904e-01 -3.20026e+01  6.15009e+01  6.24146e+05 -6.47241e+05  1.04196e+03  0.00000e+00 -2.20538e+04 -1.05479e+03 -2.31086e+04  5.99907e-01  1.00000e+00  3.19712e+01  0.00000e+00  1.48710e+01 
 6.87356e-03  5.14086e-03  8.28595e-21  3.47944e+00  5.49867e-04  3.60205e+02  3.60099e+02  6.84274e+00  6.93258e+00  6.01638e-01 -3.25757e+01  6.32414e+01  6.68872e+05 -6.93467e+05  1.06424e+03  0.00000e+00 -2.35306e+04 -1.10085e+03 -2.46315e+04  6.01642e-01  1.00000e+00  3.25428e+01  0.00000e+00  1.61064e+01 
 7.05370e-03  5.37934e-03 -1.59677e-20  3.47944e+00  5.34195e-04  3.60203e+02  3.60099e+02  6.78778e+00  6.87383e+00  6.03397e-01 -3.32089e+01  6.50973e+01  7.18543e+05 -7.44895e+05  1.08746e+03  0.00000e+00 -2.52641e+04 -1.15179e+03 -2.64159e+04  6.03400e-01  1.00000e+00  3.31746e+01  0.00000e+00  1.74874e+01 
 7.23722e-03  5.61783e-03  0.00000e+00  3.47944e+00  5.18353e-04  3.60201e+02  3.60100e+02  6.72933e+00  6.81155e+00  6.05258e-01 -3.39167e+01  6.70873e+01  7.74139e+05 -8.02459e+05  1.11188e+03  0.00000e+00 -2.72085e+04 -1.20854e+03 -2.84170e+04  6.05261e-01  1.00000e+00  3.38807e+01  0.00000e+00  1.90535e+01 
 7.42387e-03  5.85632e-03  0.00000e+00  3.47944e+00  5.02402e-04  3.60199e+02  3.60100e+02  6.66516e+00  6.74354e+00  6.07122e-01 -3.47300e+01  6.92180e+01  8.36352e+05 -8.66988e+05  1.13719e+03  0.00000e+00 -2.94991e+04 -1.27287e+03 -3.07720e+04  6.07123e-01  1.00000e+00  3.46922e+01  0.00000e+00  2.08156e+01 
 7.61342e-03  6.09482e-03  0.00000e+00  3.47944e+00  4.86237e-04  3.60198e+02  3.60101e+02  6.59785e+00  6.67237e+00  6.09083e-01 -3.56791e+01  7.15198e+01  9.06745e+05 -9.40039e+05  1.16423e+03  0.00000e+00 -3.21299e+04 -1.34675e+03 -3.34766e+04  6.09083e-01  1.00000e+00  3.56394e+01  0.00000e+00  2.28328e+01 
 7.80566e-03  6.33332e-03  0.00000e+00  3.47944e+00  4.69921e-04  3.60196e+02  3.60101e+02  6.52204e+00  6.59267e+00  6.11054e-01 -3.68270e+01  7.40038e+01  9.86450e+05 -1.02293e+06  1.19152e+03  0.00000e+00 -3.52887e+04 -1.43369e+03 -3.67223e+04  6.11052e-01  1.00000e+00  3.67851e+01  0.00000e+00  2.51299e+01 
 8.00039e-03  6.57182e-03  0.00000e+00  3.47944e+00  4.53268e-04  3.60194e+02  3.60102e+02  6.44508e+00  6.51185e+00  6.13162e-01 -3.82415e+01  7.67237e+01  1.07835e+06 -1.11839e+06  1.22120e+03  0.00000e+00 -3.88131e+04 -1.53813e+03 -4.03513e+04  6.13161e-01  1.00000e+00  3.81972e+01  0.00000e+00  2.78187e+01 
 8.19744e-03  6.81033e-03  1.31016e-20  3.47944e+00  4.36382e-04  3.60193e+02  3.60102e+02  6.35324e+00  6.41605e+00  6.15211e-01 -4.00607e+01  7.96935e+01  1.18407e+06 -1.22882e+06  1.25115e+03  0.00000e+00 -4.35022e+04 -1.66807e+03 -4.51703e+04  6.15210e-01  1.00000e+00  4.00138e+01  0.00000e+00  3.09087e+01 
 8.39664e-03  7.04884e-03  0.00000e+00  3.47944e+00  4.18919e-04  3.60193e+02  3.60103e+02  6.26624e+00  6.32513e+00  6.17478e-01 -4.24362e+01  8.30165e+01  1.30954e+06 -1.35945e+06  1.28579e+03  0.00000e+00 -4.86264e+04 -1.83390e+03 -5.04603e+04  6.17478e-01  1.00000e+00  4.23864e+01  0.00000e+00  3.46458e+01 
 8.59784e-03  7.28736e-03  0.00000e+00  3.47944e+00  4.01088e-04  3.60193e+02  3.60104e+02  6.15023e+00  6.20502e+00  6.19633e-01 -4.57111e+01  8.67085e+01  1.45732e+06 -1.51472e+06  1.31914e+03  0.00000e+00 -5.60786e+04 -2.05612e+03 -5.81347e+04  6.19634e-01  1.00000e+00  4.56579e+01  0.00000e+00  3.90222e+01 
 8.80092e-03  7.52587e-03  0.00000e+00  3.47944e+00  3.82245e-04  3.60194e+02  3.60104e+02  6.05343e+00  6.10423e+00  6.22125e-01 -5.02790e+01  9.09839e+01  1.64085e+06 -1.70619e+06  1.36256e+03  0.00000e+00 -6.39729e+04 -2.36365e+03 -6.63366e+04  6.22127e-01  1.00000e+00  5.02220e+01  0.00000e+00  4.45895e+01 
 9.00573e-03  7.76439e-03 -1.17014e-20  3.47944e+00  3.62820e-04  3.60196e+02  3.60105e+02  5.89887e+00  5.94532e+00  6.24435e-01 -5.70936e+01  9.58570e+01  1.86477e+06 -1.94320e+06  1.40095e+03  0.00000e+00 -7.70255e+04 -2.81743e+03 -7.98429e+04  6.24437e-01  1.00000e+00  5.70321e+01  0.00000e+00  5.13020e+01 
 9.21216e-03  8.00291e-03  0.00000e+00  3.47944e+00  3.41621e-04  3.60201e+02  3.60106e+02  5.79138e+00  5.83370e+00  6.27204e-01 -6.74917e+01  1.01807e+02  2.16289e+06 -2.25584e+06  1.46136e+03  0.00000e+00 -9.14879e+04 -3.52192e+03 -9.50098e+04  6.27204e-01  1.00000e+00  6.74248e+01  0.00000e+00  6.04735e+01 
 9.42012e-03  8.24144e-03  0.00000e+00  3.47944e+00  3.19414e-04  3.60209e+02  3.60107e+02  5.56896e+00  5.60603e+00  6.29829e-01 -8.46978e+01  1.08887e+02  2.54878e+06 -2.67017e+06  1.50922e+03  0.00000e+00 -1.19881e+05 -4.70798e+03 -1.24588e+05  6.29828e-01  1.00000e+00  8.46245e+01  0.00000e+00  7.21601e+01 
 9.62949e-03  8.47996e-03  0.00000e+00  3.47944e+00  2.94087e-04  3.60224e+02  3.60108e+02  5.43896e+00  5.47193e+00  6.33123e-01 -1.15112e+02  1.18267e+02  3.12094e+06 -3.28177e+06  1.59913e+03  0.00000e+00 -1.59235e+05 -6.91451e+03 -1.66149e+05  6.33122e-01  1.00000e+00  1.15030e+02  0.00000e+00  8.98889e+01 
 9.84019e-03  8.71849e-03  0.00000e+00  3.47944e+00  2.66366e-04  3.60252e+02  3.60110e+02  5.11080e+00  5.13826e+00  6.36273e-01 -1.75873e+02  1.30579e+02  3.97310e+06 -4.21146e+06  1.66215e+03  0.00000e+00 -2.36692e+05 -1.16075e+04 -2.48300e+05  6.36273e-01  1.00000e+00  1.75780e+02  0.00000e+00  1.15953e+02 
 1.00521e-02  8.95702e-03  0.00000e+00  3.47944e+00  2.32425e-04  3.60310e+02  3.60111e+02  4.90850e+00  4.93268e+00  6.40493e-01 -3.21882e+02  1.49650e+02  5.55191e+06 -5.91429e+06  1.81511e+03  0.00000e+00 -3.60572e+05 -2.41821e+04 -3.84754e+05  6.40488e-01  1.00000e+00  3.21771e+02  0.00000e+00  1.65880e+02 
 1.02653e-02  9.19555e-03  0.00000e+00  3.47944e+00  1.91366e-04  3.60458e+02  3.60113e+02  4.34733e+00  4.36659e+00  6.43889e-01 -7.97254e+02  1.81765e+02  9.00204e+06 -9.62098e+06  1.94604e+03  0.00000e+00 -6.16993e+05 -7.24054e+04 -6.89398e+05  6.43878e-01  1.00000e+00  7.97115e+02  0.00000e+00  2.74281e+02 
 1.04795e-02  9.43408e-03  0.00000e+00  3.47944e+00  1.40707e-04  3.61034e+02  3.60115e+02  3.71421e+00  3.72652e+00  6.51576e-01 -7.69341e+03  2.47215e+02  2.01767e+07 -1.96375e+07  2.30540e+03  1.38254e+06  1.92404e+06 -1.98595e+06 -6.19164e+04  6.51565e-01  1.00000e+00  7.69322e+03  4.13378e+03  6.93301e+02 
