# Code_Saturne plot output (1D profile)
#
# Iteration output: 13536
# Time output:      2.30016e+01
#
#COLUMN_TITLES: Distance | X | Y | Z | diameter_Field2 | temp_Field1 | temp_Field2 | Velocity_Field1[Z] | Velocity_Field2[Z] | vol_f_Field2 | mass_trans_Field1 | Xd_Field2 | BK | COAL | COMP | NUCL | W1 | MT | SMBR | ALPBB | CONDNUM | GAMA | GAMANUC | epsilon_Field1
 4.56474e-03  1.39645e-04  0.00000e+00  3.47944e+00  8.14968e-04  3.60372e+02  3.60162e+02  9.52596e+00  9.68737e+00  7.26337e-01 -4.04101e+01  4.25288e+01  1.36988e+05 -1.33356e+05  1.67416e+03  0.00000e+00  5.30636e+03 -7.10783e+02  4.59558e+03  7.26337e-01  1.00000e+00  4.04058e+01  0.00000e+00  1.42379e+01 
 4.57812e-03  3.76525e-04  4.25872e-21  3.47944e+00  8.13410e-04  3.60372e+02  3.60162e+02  9.52369e+00  9.68523e+00  7.26456e-01 -4.04844e+01  4.26103e+01  1.37562e+05 -1.34065e+05  1.67718e+03  0.00000e+00  5.17487e+03 -7.13340e+02  4.46153e+03  7.26455e-01  1.00000e+00  4.04802e+01  0.00000e+00  1.42994e+01 
 4.60371e-03  6.13858e-04  0.00000e+00  3.47944e+00  8.10393e-04  3.60372e+02  3.60162e+02  9.51919e+00  9.68020e+00  7.26558e-01 -4.05747e+01  4.27689e+01  1.38747e+05 -1.35430e+05  1.68292e+03  0.00000e+00  4.99910e+03 -7.17490e+02  4.28161e+03  7.26557e-01  1.00000e+00  4.05704e+01  0.00000e+00  1.44191e+01 
 4.64138e-03  8.51483e-04  0.00000e+00  3.47944e+00  8.05988e-04  3.60371e+02  3.60162e+02  9.51239e+00  9.67237e+00  7.26732e-01 -4.06902e+01  4.30027e+01  1.40498e+05 -1.37451e+05  1.69131e+03  0.00000e+00  4.73814e+03 -7.23294e+02  4.01485e+03  7.26730e-01  1.00000e+00  4.06859e+01  0.00000e+00  1.45985e+01 
 4.69084e-03  1.08931e-03  0.00000e+00  3.47944e+00  8.00218e-04  3.60370e+02  3.60162e+02  9.50328e+00  9.66186e+00  7.26964e-01 -4.08378e+01  4.33129e+01  1.42842e+05 -1.40150e+05  1.70236e+03  0.00000e+00  4.39376e+03 -7.30921e+02  3.66284e+03  7.26962e-01  1.00000e+00  4.08335e+01  0.00000e+00  1.48397e+01 
 4.75174e-03  1.32727e-03  1.05001e-20  3.47944e+00  7.93153e-04  3.60369e+02  3.60162e+02  9.49183e+00  9.64866e+00  7.27267e-01 -4.10162e+01  4.36988e+01  1.45789e+05 -1.43542e+05  1.71603e+03  0.00000e+00  3.96288e+03 -7.40346e+02  3.22253e+03  7.27265e-01  1.00000e+00  4.10119e+01  0.00000e+00  1.51453e+01 
 4.82366e-03  1.56534e-03  0.00000e+00  3.47944e+00  7.84858e-04  3.60368e+02  3.60162e+02  9.47801e+00  9.63276e+00  7.27640e-01 -4.12244e+01  4.41607e+01  1.49363e+05 -1.47651e+05  1.73230e+03  0.00000e+00  3.44439e+03 -7.51584e+02  2.69281e+03  7.27638e-01  1.00000e+00  4.12200e+01  0.00000e+00  1.55185e+01 
 4.90611e-03  1.80349e-03  8.81027e-21  3.47944e+00  7.75424e-04  3.60367e+02  3.60162e+02  9.46178e+00  9.61415e+00  7.28092e-01 -4.14601e+01  4.46981e+01  1.53583e+05 -1.52497e+05  1.75111e+03  0.00000e+00  2.83755e+03 -7.64603e+02  2.07294e+03  7.28090e-01  1.00000e+00  4.14556e+01  0.00000e+00  1.59635e+01 
 4.99859e-03  2.04170e-03  0.00000e+00  3.47944e+00  7.64942e-04  3.60365e+02  3.60162e+02  9.44308e+00  9.59278e+00  7.28627e-01 -4.17208e+01  4.53107e+01  1.58479e+05 -1.58109e+05  1.77244e+03  0.00000e+00  2.14278e+03 -7.79383e+02  1.36340e+03  7.28625e-01  1.00000e+00  4.17163e+01  0.00000e+00  1.64850e+01 
 5.10055e-03  2.27996e-03  7.58893e-21  3.47944e+00  7.53509e-04  3.60363e+02  3.60162e+02  9.42185e+00  9.56861e+00  7.29246e-01 -4.20035e+01  4.59984e+01  1.64085e+05 -1.64516e+05  1.79626e+03  0.00000e+00  1.36503e+03 -7.95895e+02  5.69139e+02  7.29245e-01  1.00000e+00  4.19989e+01  0.00000e+00  1.70887e+01 
 5.21143e-03  2.51826e-03  7.09702e-21  3.47944e+00  7.41225e-04  3.60362e+02  3.60163e+02  9.39800e+00  9.54160e+00  7.29962e-01 -4.23057e+01  4.67610e+01  1.70432e+05 -1.71756e+05  1.82259e+03  0.00000e+00  4.98223e+02 -8.14110e+02 -3.15887e+02  7.29961e-01  1.00000e+00  4.23010e+01  0.00000e+00  1.77811e+01 
 5.33068e-03  2.75659e-03  1.33300e-20  3.47944e+00  7.28174e-04  3.60359e+02  3.60163e+02  9.37147e+00  9.51169e+00  7.30768e-01 -4.26249e+01  4.75993e+01  1.77576e+05 -1.79881e+05  1.85148e+03  0.00000e+00 -4.54304e+02 -8.34037e+02 -1.28834e+03  7.30767e-01  1.00000e+00  4.26202e+01  0.00000e+00  1.85700e+01 
 5.45775e-03  2.99495e-03  1.25651e-20  3.47944e+00  7.14436e-04  3.60357e+02  3.60163e+02  9.34215e+00  9.47880e+00  7.31652e-01 -4.29597e+01  4.85149e+01  1.85585e+05 -1.88958e+05  1.88306e+03  0.00000e+00 -1.48993e+03 -8.55719e+02 -2.34565e+03  7.31651e-01  1.00000e+00  4.29548e+01  0.00000e+00  1.94642e+01 
 5.59212e-03  3.23333e-03  0.00000e+00  3.47944e+00  7.00097e-04  3.60355e+02  3.60164e+02  9.30991e+00  9.44283e+00  7.32617e-01 -4.33079e+01  4.95089e+01  1.94524e+05 -1.99055e+05  1.91749e+03  0.00000e+00 -2.61404e+03 -8.79170e+02 -3.49321e+03  7.32617e-01  1.00000e+00  4.33030e+01  0.00000e+00  2.04739e+01 
 5.73326e-03  3.47172e-03  0.00000e+00  3.47944e+00  6.85249e-04  3.60352e+02  3.60164e+02  9.27461e+00  9.40366e+00  7.33665e-01 -4.36666e+01  5.05822e+01  2.04461e+05 -2.10241e+05  1.95497e+03  0.00000e+00 -3.82443e+03 -9.04371e+02 -4.72880e+03  7.33665e-01  1.00000e+00  4.36615e+01  0.00000e+00  2.16104e+01 
 5.88069e-03  3.71014e-03 -5.35987e-21  3.47944e+00  6.69970e-04  3.60350e+02  3.60165e+02  9.23610e+00  9.36115e+00  7.34795e-01 -4.40337e+01  5.17362e+01  2.15480e+05 -2.22599e+05  1.99584e+03  0.00000e+00 -5.12307e+03 -9.31345e+02 -6.05442e+03  7.34796e-01  1.00000e+00  4.40285e+01  0.00000e+00  2.28870e+01 
 6.03395e-03  3.94857e-03  5.10973e-21  3.47944e+00  6.54339e-04  3.60347e+02  3.60166e+02  9.19420e+00  9.31515e+00  7.36005e-01 -4.44064e+01  5.29728e+01  2.27673e+05 -2.36220e+05  2.04057e+03  0.00000e+00 -6.50607e+03 -9.60091e+02 -7.46616e+03  7.36007e-01  1.00000e+00  4.44010e+01  0.00000e+00  2.43188e+01 
 6.19261e-03  4.18701e-03  0.00000e+00  3.47944e+00  6.38421e-04  3.60344e+02  3.60166e+02  9.14871e+00  9.26548e+00  7.37297e-01 -4.47840e+01  5.42943e+01  2.41147e+05 -2.51218e+05  2.08982e+03  0.00000e+00 -7.98039e+03 -9.90669e+02 -8.97106e+03  7.37299e-01  1.00000e+00  4.47785e+01  0.00000e+00  2.59232e+01 
 6.35626e-03  4.42546e-03  0.00000e+00  3.47944e+00  6.22276e-04  3.60341e+02  3.60167e+02  9.09942e+00  9.21195e+00  7.38670e-01 -4.51651e+01  5.57040e+01  2.56027e+05 -2.67722e+05  2.14448e+03  0.00000e+00 -9.54967e+03 -1.02313e+03 -1.05728e+04  7.38672e-01  1.00000e+00  4.51594e+01  0.00000e+00  2.77203e+01 
 6.52453e-03  4.66392e-03 -8.96437e-21  3.47944e+00  6.05952e-04  3.60338e+02  3.60169e+02  9.04612e+00  9.15434e+00  7.40119e-01 -4.55508e+01  5.72058e+01  2.72462e+05 -2.85882e+05  2.20572e+03  0.00000e+00 -1.12149e+04 -1.05761e+03 -1.22725e+04  7.40122e-01  1.00000e+00  4.55450e+01  0.00000e+00  2.97339e+01 
 6.69707e-03  4.90238e-03  1.72236e-20  3.47944e+00  5.89486e-04  3.60334e+02  3.60170e+02  8.98852e+00  9.09239e+00  7.41643e-01 -4.59428e+01  5.88052e+01  2.90629e+05 -3.05891e+05  2.27512e+03  0.00000e+00 -1.29872e+04 -1.09428e+03 -1.40815e+04  7.41646e-01  1.00000e+00  4.59368e+01  0.00000e+00  3.19920e+01 
 6.87356e-03  5.14086e-03  8.28595e-21  3.47944e+00  5.72904e-04  3.60331e+02  3.60172e+02  8.92632e+00  9.02582e+00  7.43243e-01 -4.63466e+01  6.05093e+01  3.10739e+05 -3.27981e+05  2.35467e+03  0.00000e+00 -1.48879e+04 -1.13344e+03 -1.60214e+04  7.43245e-01  1.00000e+00  4.63405e+01  0.00000e+00  3.45277e+01 
 7.05370e-03  5.37934e-03 -1.59677e-20  3.47944e+00  5.56217e-04  3.60328e+02  3.60175e+02  8.85922e+00  8.95430e+00  7.44920e-01 -4.67694e+01  6.23273e+01  3.33048e+05 -3.52448e+05  2.44685e+03  0.00000e+00 -1.69527e+04 -1.17549e+03 -1.81282e+04  7.44921e-01  1.00000e+00  4.67630e+01  0.00000e+00  3.73817e+01 
 7.23722e-03  5.61783e-03  0.00000e+00  3.47944e+00  5.39425e-04  3.60324e+02  3.60178e+02  8.78682e+00  8.87747e+00  7.46666e-01 -4.72249e+01  6.42710e+01  3.57896e+05 -3.79654e+05  2.55476e+03  0.00000e+00 -1.92034e+04 -1.22109e+03 -2.04245e+04  7.46665e-01  1.00000e+00  4.72183e+01  0.00000e+00  4.06039e+01 
 7.42387e-03  5.85632e-03  0.00000e+00  3.47944e+00  5.22511e-04  3.60321e+02  3.60182e+02  8.70868e+00  8.79487e+00  7.48477e-01 -4.77319e+01  6.63560e+01  3.85699e+05 -4.10078e+05  2.68229e+03  0.00000e+00 -2.16969e+04 -1.27115e+03 -2.29680e+04  7.48474e-01  1.00000e+00  4.77251e+01  0.00000e+00  4.42566e+01 
 7.61342e-03  6.09482e-03  0.00000e+00  3.47944e+00  5.05449e-04  3.60318e+02  3.60188e+02  8.62427e+00  8.70596e+00  7.50360e-01 -4.83190e+01  6.86019e+01  4.16977e+05 -4.44322e+05  2.83412e+03  0.00000e+00 -2.45112e+04 -1.32701e+03 -2.58382e+04  7.50353e-01  1.00000e+00  4.83119e+01  0.00000e+00  4.84192e+01 
 7.80566e-03  6.33332e-03  0.00000e+00  3.47944e+00  4.88190e-04  3.60314e+02  3.60195e+02  8.53298e+00  8.61013e+00  7.52308e-01 -4.90285e+01  7.10354e+01  4.52444e+05 -4.83204e+05  3.01592e+03  0.00000e+00 -2.77444e+04 -1.39065e+03 -2.91351e+04  7.52295e-01  1.00000e+00  4.90211e+01  0.00000e+00  5.31949e+01 
 8.00039e-03  6.57182e-03  0.00000e+00  3.47944e+00  4.70674e-04  3.60311e+02  3.60204e+02  8.43402e+00  8.50658e+00  7.54318e-01 -4.99228e+01  7.36899e+01  4.93027e+05 -5.27781e+05  3.23463e+03  0.00000e+00 -3.15189e+04 -1.46503e+03 -3.29839e+04  7.54298e-01  1.00000e+00  4.99152e+01  0.00000e+00  5.87200e+01 
 8.19744e-03  6.81033e-03  1.31016e-20  3.47944e+00  4.52814e-04  3.60308e+02  3.60217e+02  8.32640e+00  8.39429e+00  7.56392e-01 -5.10962e+01  7.66112e+01  5.39991e+05 -5.79540e+05  3.49887e+03  0.00000e+00 -3.60495e+04 -1.55465e+03 -3.76041e+04  7.56366e-01  1.00000e+00  5.10883e+01  0.00000e+00  6.51786e+01 
 8.39664e-03  7.04884e-03  0.00000e+00  3.47944e+00  4.34504e-04  3.60306e+02  3.60233e+02  8.20883e+00  8.27197e+00  7.58546e-01 -5.26911e+01  7.98593e+01  5.95044e+05 -6.40491e+05  3.81896e+03  0.00000e+00 -4.16278e+04 -1.66641e+03 -4.32942e+04  7.58516e-01  1.00000e+00  5.26829e+01  0.00000e+00  7.28277e+01 
 8.59784e-03  7.28736e-03  0.00000e+00  3.47944e+00  4.15594e-04  3.60304e+02  3.60254e+02  8.07967e+00  8.13795e+00  7.60745e-01 -5.49443e+01  8.35200e+01  6.60824e+05 -7.13596e+05  4.20807e+03  0.00000e+00 -4.85632e+04 -1.81207e+03 -5.03753e+04  7.60712e-01  1.00000e+00  5.49357e+01  0.00000e+00  8.20337e+01 
 8.80092e-03  7.52587e-03  0.00000e+00  3.47944e+00  3.95920e-04  3.60302e+02  3.60281e+02  7.93676e+00  7.99007e+00  7.63069e-01 -5.82248e+01  8.77068e+01  7.40781e+05 -8.03056e+05  4.68271e+03  0.00000e+00 -5.75926e+04 -2.01034e+03 -5.96029e+04  7.63043e-01  1.00000e+00  5.82158e+01  0.00000e+00  9.33438e+01 
 9.00573e-03  7.76439e-03 -1.17014e-20  3.47944e+00  3.75191e-04  3.60302e+02  3.60316e+02  7.77712e+00  7.82531e+00  7.65393e-01 -6.32296e+01  9.26028e+01  8.41213e+05 -9.15845e+05  5.26446e+03  0.00000e+00 -6.93684e+04 -2.29788e+03 -7.16663e+04  7.65395e-01  1.00000e+00  6.32202e+01  0.00000e+00  1.07595e+02 
 9.21216e-03  8.00291e-03  0.00000e+00  3.47944e+00  3.53130e-04  3.60304e+02  3.60363e+02  7.59667e+00  7.63959e+00  7.67807e-01 -7.11763e+01  9.84579e+01  9.71397e+05 -1.06211e+06  5.99769e+03  0.00000e+00 -8.47185e+04 -2.74145e+03 -8.74600e+04  7.67832e-01  1.00000e+00  7.11664e+01  0.00000e+00  1.26197e+02 
 9.42012e-03  8.24144e-03  0.00000e+00  3.47944e+00  3.29144e-04  3.60308e+02  3.60425e+02  7.38760e+00  7.42501e+00  7.70090e-01 -8.47667e+01  1.05733e+02  1.14922e+06 -1.26348e+06  6.95755e+03  0.00000e+00 -1.07300e+05 -3.49553e+03 -1.10795e+05  7.70159e-01  1.00000e+00  8.47562e+01  0.00000e+00  1.51424e+02 
 9.62949e-03  8.47996e-03  0.00000e+00  3.47944e+00  3.02845e-04  3.60318e+02  3.60509e+02  7.14257e+00  7.17440e+00  7.73593e-01 -1.09478e+02  1.15060e+02  1.39863e+06 -1.55077e+06  8.25234e+03  0.00000e+00 -1.43891e+05 -4.89069e+03 -1.48782e+05  7.73685e-01  1.00000e+00  1.09467e+02  0.00000e+00  1.88342e+02 
 9.84019e-03  8.71849e-03  0.00000e+00  3.47944e+00  2.72692e-04  3.60340e+02  3.60627e+02  6.83380e+00  6.86046e+00  7.76038e-01 -1.61572e+02  1.28009e+02  1.80034e+06 -2.02067e+06  9.98431e+03  0.00000e+00 -2.10355e+05 -8.00673e+03 -2.18362e+05  7.76103e-01  1.00000e+00  1.61560e+02  0.00000e+00  2.45319e+02 
 1.00521e-02  8.95702e-03  0.00000e+00  3.47944e+00  2.36915e-04  3.60391e+02  3.60801e+02  6.46524e+00  6.48609e+00  7.81543e-01 -2.92462e+02  1.47719e+02  2.51336e+06 -2.85513e+06  1.24093e+04  0.00000e+00 -3.29362e+05 -1.66117e+04 -3.45974e+05  7.81535e-01  1.00000e+00  2.92449e+02  0.00000e+00  3.54929e+02 
 1.02653e-02  9.19555e-03  0.00000e+00  3.47944e+00  1.94852e-04  3.60535e+02  3.61085e+02  5.82898e+00  5.84806e+00  7.85264e-01 -7.42604e+02  1.80357e+02  4.04355e+06 -4.64519e+06  1.43639e+04  0.00000e+00 -5.87276e+05 -5.12603e+04 -6.38536e+05  7.85199e-01  1.00000e+00  7.42590e+02  0.00000e+00  5.84704e+02 
 1.04795e-02  9.43408e-03  0.00000e+00  3.47944e+00  1.44082e-04  3.61162e+02  3.61691e+02  4.99043e+00  5.00539e+00  7.95464e-01 -9.69016e+03  2.46028e+02  8.94056e+06 -8.10164e+06  4.31068e+04  1.28817e+06  2.17019e+06 -2.16017e+06  1.00181e+04  7.95367e-01  1.00000e+00  9.69015e+03  6.10739e+03  1.59253e+03 
