# Code_Saturne plot output (1D profile)
#
# Iteration output: 3451
# Time output:      2.30005e+01
#
#COLUMN_TITLES: Distance | X | Y | Z | diameter_Field2 | temp_Field1 | temp_Field2 | Velocity_Field1[Z] | Velocity_Field2[Z] | vol_f_Field2 | mass_trans_Field1 | Xd_Field2 | BK | COAL | COMP | NUCL | W1 | MT | SMBR | ALPBB | CONDNUM | GAMA | GAMANUC | epsilon_Field1
 4.56474e-03  1.39645e-04  0.00000e+00  3.47944e+00  4.63408e-05  3.58433e+02  3.60048e+02  4.17444e+00  4.17987e+00  7.40712e-03  1.05338e+02  7.52167e+02  1.01248e-15 -3.42577e+05  3.46502e+03  0.00000e+00 -3.39112e+05  3.02951e+06  2.69040e+06  7.41170e-03  1.00000e+00 -1.05190e+02  0.00000e+00  3.66806e-01 
 4.57812e-03  3.76525e-04  4.25872e-21  3.47944e+00  6.18272e-05  3.58437e+02  3.60048e+02  4.17396e+00  4.18239e+00  7.76870e-03  7.42467e+01  5.63765e+02  7.46062e-07 -2.20673e+05  2.59075e+03  0.00000e+00 -2.18082e+05  1.52601e+06  1.30793e+06  7.77321e-03  1.00000e+00 -7.41424e+01  0.00000e+00  3.70621e-01 
 4.60371e-03  6.13858e-04  0.00000e+00  3.47944e+00  7.47129e-05  3.58446e+02  3.60048e+02  4.17242e+00  4.18332e+00  8.38432e-03  6.21423e+01  4.66532e+02  5.12899e-03 -1.73495e+05  2.14339e+03  0.00000e+00 -1.71352e+05  9.79337e+05  8.07986e+05  8.38902e-03  1.00000e+00 -6.20546e+01  0.00000e+00  3.78113e-01 
 4.64138e-03  8.51483e-04  0.00000e+00  3.47944e+00  8.55393e-05  3.58459e+02  3.60048e+02  4.17011e+00  4.18307e+00  9.24406e-03  5.70836e+01  4.07485e+02  6.18728e-01 -1.53179e+05  1.87190e+03  0.00000e+00 -1.51306e+05  7.12675e+05  5.61369e+05  9.24906e-03  1.00000e+00 -5.70023e+01  0.00000e+00  3.89387e-01 
 4.69084e-03  1.08931e-03  0.00000e+00  3.47944e+00  9.52432e-05  3.58478e+02  3.60048e+02  4.16699e+00  4.18180e+00  1.03623e-02  5.51792e+01  3.65969e+02  1.38262e+01 -1.44576e+05  1.68109e+03  0.00000e+00 -1.42881e+05  5.51942e+05  4.09061e+05  1.03677e-02  1.00000e+00 -5.50997e+01  0.00000e+00  4.04602e-01 
 4.75174e-03  1.32727e-03  1.05001e-20  3.47944e+00  1.04274e-04  3.58501e+02  3.60048e+02  4.16306e+00  4.17960e+00  1.17643e-02  5.50561e+01  3.34272e+02  1.26961e+02 -1.42598e+05  1.53525e+03  0.00000e+00 -1.40936e+05  4.43066e+05  3.02130e+05  1.17702e-02  1.00000e+00 -5.49756e+01  0.00000e+00  4.24012e-01 
 4.82366e-03  1.56534e-03  0.00000e+00  3.47944e+00  1.12855e-04  3.58529e+02  3.60048e+02  4.15833e+00  4.17651e+00  1.34813e-02  5.61381e+01  3.08857e+02  6.75091e+02 -1.45137e+05  1.41821e+03  0.00000e+00 -1.43043e+05  3.64257e+05  2.21213e+05  1.34878e-02  1.00000e+00 -5.60545e+01  0.00000e+00  4.47926e-01 
 4.90611e-03  1.80349e-03  8.81027e-21  3.47944e+00  1.21084e-04  3.58562e+02  3.60048e+02  4.15277e+00  4.17252e+00  1.55551e-02  5.81317e+01  2.87866e+02  2.47605e+03 -1.51304e+05  1.32128e+03  0.00000e+00 -1.47507e+05  3.04684e+05  1.57177e+05  1.55624e-02  1.00000e+00 -5.80433e+01  0.00000e+00  4.76767e-01 
 4.99859e-03  2.04170e-03  0.00000e+00  3.47944e+00  1.28986e-04  3.58599e+02  3.60048e+02  4.14636e+00  4.16758e+00  1.80289e-02  6.09112e+01  2.70231e+02  6.92855e+03 -1.60735e+05  1.23970e+03  0.00000e+00 -1.52567e+05  2.58570e+05  1.06003e+05  1.80369e-02  1.00000e+00 -6.08162e+01  0.00000e+00  5.11024e-01 
 5.10055e-03  2.27996e-03  7.58893e-21  3.47944e+00  1.36546e-04  3.58640e+02  3.60048e+02  4.13906e+00  4.16167e+00  2.09612e-02  6.44019e+01  2.55270e+02  1.57958e+04 -1.73468e+05  1.17015e+03  0.00000e+00 -1.56502e+05  2.22122e+05  6.56197e+04  2.09701e-02  1.00000e+00 -6.42986e+01  0.00000e+00  5.51312e-01 
 5.21143e-03  2.51826e-03  7.09702e-21  3.47944e+00  1.43742e-04  3.58685e+02  3.60048e+02  4.13083e+00  4.15471e+00  2.44041e-02  6.85762e+01  2.42491e+02  3.07387e+04 -1.89611e+05  1.11054e+03  0.00000e+00 -1.57762e+05  1.92978e+05  3.52156e+04  2.44139e-02  1.00000e+00 -6.84628e+01  0.00000e+00  5.98340e-01 
 5.33068e-03  2.75659e-03  1.33300e-20  3.47944e+00  1.50579e-04  3.58733e+02  3.60048e+02  4.12161e+00  4.14667e+00  2.84340e-02  7.33929e+01  2.31480e+02  5.29087e+04 -2.09500e+05  1.05881e+03  0.00000e+00 -1.55532e+05  1.69207e+05  1.36745e+04  2.84448e-02  1.00000e+00 -7.32671e+01  0.00000e+00  6.52966e-01 
 5.45775e-03  2.99495e-03  1.25651e-20  3.47944e+00  1.57104e-04  3.58784e+02  3.60048e+02  4.11135e+00  4.13747e+00  3.31072e-02  7.87899e+01  2.21866e+02  8.27869e+04 -2.33270e+05  1.01341e+03  0.00000e+00 -1.49470e+05  1.49524e+05  5.45170e+01  3.31189e-02  1.00000e+00 -7.86496e+01  0.00000e+00  7.16182e-01 
 5.59212e-03  3.23333e-03  0.00000e+00  3.47944e+00  1.63420e-04  3.58838e+02  3.60048e+02  4.09996e+00  4.12707e+00  3.85169e-02  8.46706e+01  2.13292e+02  1.20270e+05 -2.61216e+05  9.72525e+02  0.00000e+00 -1.39973e+05  1.32772e+05 -7.20082e+03  3.85297e-02  1.00000e+00 -8.45132e+01  0.00000e+00  7.89181e-01 
 5.73326e-03  3.47172e-03  0.00000e+00  3.47944e+00  1.69668e-04  3.58893e+02  3.60048e+02  4.08736e+00  4.11541e+00  4.47144e-02  9.08716e+01  2.05438e+02  1.64772e+05 -2.93171e+05  9.34912e+02  0.00000e+00 -1.27464e+05  1.18219e+05 -9.24483e+03  4.47281e-02  1.00000e+00 -9.06948e+01  0.00000e+00  8.73340e-01 
 5.88069e-03  3.71014e-03 -5.35987e-21  3.47944e+00  1.76031e-04  3.58951e+02  3.60048e+02  4.07345e+00  4.10243e+00  5.18026e-02  9.72002e+01  1.98011e+02  2.15304e+05 -3.29092e+05  8.99020e+02  0.00000e+00 -1.12888e+05  1.05197e+05 -7.69162e+03  5.18170e-02  1.00000e+00 -9.70014e+01  0.00000e+00  9.70307e-01 
 6.03395e-03  3.94857e-03  5.10973e-21  3.47944e+00  1.82713e-04  3.59009e+02  3.60048e+02  4.05808e+00  4.08803e+00  5.98057e-02  1.03364e+02  1.90771e+02  2.70429e+05 -3.68168e+05  8.63893e+02  0.00000e+00 -9.68747e+04  9.33465e+04 -3.52816e+03  5.98204e-02  1.00000e+00 -1.03141e+02  0.00000e+00  1.08198e+00 
 6.19261e-03  4.18701e-03  0.00000e+00  3.47944e+00  1.89933e-04  3.59068e+02  3.60048e+02  4.04110e+00  4.07210e+00  6.88263e-02  1.08158e+02  1.83518e+02  3.28249e+05 -4.09804e+05  8.28490e+02  0.00000e+00 -8.07261e+04  8.16393e+04  9.13182e+02  6.88413e-02  1.00000e+00 -1.07911e+02  0.00000e+00  1.21061e+00 
 6.35626e-03  4.42546e-03  0.00000e+00  3.47944e+00  1.97883e-04  3.59127e+02  3.60048e+02  4.02232e+00  4.05449e+00  7.88397e-02  1.11506e+02  1.76146e+02  3.86408e+05 -4.52489e+05  7.92568e+02  0.00000e+00 -6.52884e+04  7.05159e+04  5.22746e+03  7.88552e-02  1.00000e+00 -1.11235e+02  0.00000e+00  1.35877e+00 
 6.52453e-03  4.66392e-03 -8.96437e-21  3.47944e+00  2.06729e-04  3.59186e+02  3.60048e+02  4.00151e+00  4.03498e+00  8.98933e-02  1.13526e+02  1.68609e+02  4.42336e+05 -4.95090e+05  7.55611e+02  0.00000e+00 -5.19985e+04  6.02618e+04  8.26332e+03  8.99100e-02  1.00000e+00 -1.13233e+02  0.00000e+00  1.52946e+00 
 6.69707e-03  4.90238e-03  1.72236e-20  3.47944e+00  2.16598e-04  3.59244e+02  3.60048e+02  3.97839e+00  4.01315e+00  1.01879e-01  1.13975e+02  1.60927e+02  4.93564e+05 -5.35670e+05  7.18048e+02  0.00000e+00 -4.13881e+04  5.09405e+04  9.55241e+03  1.01897e-01  1.00000e+00 -1.13659e+02  0.00000e+00  1.72590e+00 
 6.87356e-03  5.14086e-03  8.28595e-21  3.47944e+00  2.27564e-04  3.59301e+02  3.60048e+02  3.95269e+00  3.98888e+00  1.14763e-01  1.12775e+02  1.53172e+02  5.38089e+05 -5.73035e+05  6.79933e+02  0.00000e+00 -3.42661e+04  4.25797e+04  8.31366e+03  1.14786e-01  1.00000e+00 -1.12440e+02  0.00000e+00  1.95196e+00 
 7.05370e-03  5.37934e-03 -1.59677e-20  3.47944e+00  2.39592e-04  3.59357e+02  3.60048e+02  3.92408e+00  3.96179e+00  1.28357e-01  1.09954e+02  1.45483e+02  5.74580e+05 -6.05742e+05  6.42193e+02  0.00000e+00 -3.05202e+04  3.52461e+04  4.72589e+03  1.28383e-01  1.00000e+00 -1.09602e+02  0.00000e+00  2.21131e+00 
 7.23722e-03  5.61783e-03  0.00000e+00  3.47944e+00  2.52521e-04  3.59412e+02  3.60048e+02  3.89232e+00  3.93162e+00  1.42496e-01  1.05665e+02  1.38034e+02  6.02844e+05 -6.33389e+05  6.05264e+02  0.00000e+00 -2.99394e+04  2.89405e+04 -9.98859e+02  1.42525e-01  1.00000e+00 -1.05298e+02  0.00000e+00  2.50899e+00 
 7.42387e-03  5.85632e-03  0.00000e+00  3.47944e+00  2.66047e-04  3.59466e+02  3.60048e+02  3.85710e+00  3.89804e+00  1.56944e-01  1.00197e+02  1.31017e+02  6.23457e+05 -6.56002e+05  5.70291e+02  0.00000e+00 -3.19749e+04  2.36436e+04 -8.33135e+03  1.56971e-01  1.00000e+00 -9.98187e+01  0.00000e+00  2.84918e+00 
 7.61342e-03  6.09482e-03  0.00000e+00  3.47944e+00  2.79700e-04  3.59519e+02  3.60048e+02  3.81831e+00  3.86083e+00  1.71448e-01  9.38583e+01  1.24622e+02  6.38331e+05 -6.74674e+05  5.37752e+02  0.00000e+00 -3.58049e+04  1.92784e+04 -1.65265e+04  1.71473e-01  1.00000e+00 -9.34698e+01  0.00000e+00  3.23926e+00 
 7.80566e-03  6.33332e-03  0.00000e+00  3.47944e+00  2.92919e-04  3.59570e+02  3.60048e+02  3.77570e+00  3.81970e+00  1.85854e-01  8.70133e+01  1.18998e+02  6.49518e+05 -6.91190e+05  5.08612e+02  0.00000e+00 -4.11635e+04  1.57375e+04 -2.54261e+04  1.85873e-01  1.00000e+00 -8.66159e+01  0.00000e+00  3.68529e+00 
 8.00039e-03  6.57182e-03  0.00000e+00  3.47944e+00  3.05027e-04  3.59621e+02  3.60049e+02  3.72920e+00  3.77444e+00  1.99903e-01  7.98997e+01  1.14275e+02  6.60201e+05 -7.07800e+05  4.82994e+02  0.00000e+00 -4.71156e+04  1.28962e+04 -3.42194e+04  1.99916e-01  1.00000e+00 -7.94934e+01  0.00000e+00  4.20079e+00 
 8.19744e-03  6.81033e-03  1.31016e-20  3.47944e+00  3.15432e-04  3.59671e+02  3.60049e+02  3.67831e+00  3.72451e+00  2.13633e-01  7.27260e+01  1.10506e+02  6.72619e+05 -7.27306e+05  4.61378e+02  0.00000e+00 -5.42250e+04  1.06157e+04 -4.36094e+04  2.13636e-01  1.00000e+00 -7.23097e+01  0.00000e+00  4.79707e+00 
 8.39664e-03  7.04884e-03  0.00000e+00  3.47944e+00  3.23489e-04  3.59720e+02  3.60049e+02  3.62292e+00  3.66965e+00  2.26821e-01  6.55169e+01  1.07754e+02  6.90326e+05 -7.52541e+05  4.43483e+02  0.00000e+00 -6.17718e+04  8.77628e+03 -5.29955e+04  2.26819e-01  1.00000e+00 -6.50881e+01  0.00000e+00  5.50165e+00 
 8.59784e-03  7.28736e-03  0.00000e+00  3.47944e+00  3.28801e-04  3.59770e+02  3.60049e+02  3.56163e+00  3.60843e+00  2.39653e-01  5.82174e+01  1.06013e+02  7.15252e+05 -7.86747e+05  4.29460e+02  0.00000e+00 -7.10652e+04  7.25401e+03 -6.38112e+04  2.39647e-01  1.00000e+00 -5.77726e+01  0.00000e+00  6.33826e+00 
 8.80092e-03  7.52587e-03  0.00000e+00  3.47944e+00  3.30874e-04  3.59820e+02  3.60049e+02  3.49485e+00  3.54115e+00  2.52031e-01  5.06337e+01  1.05350e+02  7.51687e+05 -8.34212e+05  4.18923e+02  0.00000e+00 -8.21052e+04  5.95234e+03 -7.61529e+04  2.52028e-01  1.00000e+00 -5.01679e+01  0.00000e+00  7.36476e+00 
 9.00573e-03  7.76439e-03 -1.17014e-20  3.47944e+00  3.29494e-04  3.59872e+02  3.60049e+02  3.41837e+00  3.46362e+00  2.64182e-01  4.23863e+01  1.05791e+02  8.02673e+05 -8.99988e+05  4.11683e+02  0.00000e+00 -9.69040e+04  4.76187e+03 -9.21422e+04  2.64180e-01  1.00000e+00 -4.18931e+01  0.00000e+00  8.63926e+00 
 9.21216e-03  8.00291e-03  0.00000e+00  3.47944e+00  3.24164e-04  3.59925e+02  3.60050e+02  3.33562e+00  3.37923e+00  2.75972e-01  3.28965e+01  1.07532e+02  8.76690e+05 -9.92992e+05  4.07686e+02  0.00000e+00 -1.15894e+05  3.57977e+03 -1.12315e+05  2.75974e-01  1.00000e+00 -3.23665e+01  0.00000e+00  1.03077e+01 
 9.42012e-03  8.24144e-03  0.00000e+00  3.47944e+00  3.14726e-04  3.59983e+02  3.60050e+02  3.23401e+00  3.27524e+00  2.87845e-01  2.10584e+01  1.10757e+02  9.81348e+05 -1.12625e+06  4.07190e+02  0.00000e+00 -1.44499e+05  2.23674e+03 -1.42262e+05  2.87850e-01  1.00000e+00 -2.04792e+01  0.00000e+00  1.25241e+01 
 9.62949e-03  8.47996e-03  0.00000e+00  3.47944e+00  3.00446e-04  3.60048e+02  3.60050e+02  3.12253e+00  3.16015e+00  2.99579e-01  4.86218e+00  1.16022e+02  1.14047e+06 -1.32580e+06  4.11101e+02  0.00000e+00 -1.84919e+05  4.63304e+02 -1.84456e+05  2.99591e-01  1.00000e+00 -4.21459e+00  0.00000e+00  1.57461e+01 
 9.84019e-03  8.71849e-03  0.00000e+00  3.47944e+00  2.80985e-04  3.60124e+02  3.60051e+02  2.97115e+00  3.00539e+00  3.11456e-01 -4.51814e+01  1.24059e+02  1.38542e+06 -1.63667e+06  4.18753e+02  0.00000e+00 -2.50827e+05 -5.29026e+03 -2.56117e+05  3.11477e-01  1.00000e+00  4.67941e+01  0.00000e+00  2.05749e+01 
 1.00521e-02  8.95702e-03  0.00000e+00  3.47944e+00  2.54534e-04  3.60229e+02  3.60051e+02  2.80464e+00  2.83582e+00  3.23472e-01 -1.49658e+02  1.36951e+02  1.83055e+06 -2.18254e+06  4.31965e+02  0.00000e+00 -3.51559e+05 -1.82147e+04 -3.69773e+05  3.23502e-01  1.00000e+00  1.51580e+02  0.00000e+00  2.94804e+01 
 1.02653e-02  9.19555e-03  0.00000e+00  3.47944e+00  2.20164e-04  3.60412e+02  3.60052e+02  2.53027e+00  2.55684e+00  3.36555e-01 -4.08278e+02  1.58333e+02  2.75053e+06 -3.26314e+06  4.46851e+02  0.00000e+00 -5.12170e+05 -5.48405e+04 -5.67011e+05  3.36582e-01  1.00000e+00  4.10713e+02  0.00000e+00  4.92043e+01 
 1.04795e-02  9.43408e-03  0.00000e+00  3.47944e+00  1.76710e-04  3.60906e+02  3.60053e+02  2.10442e+00  2.12131e+00  3.53529e-01 -4.55980e+03  1.97271e+02  5.44426e+06 -5.80662e+06  4.82582e+02  2.19453e+06  1.83266e+06 -1.87999e+06 -4.73321e+04  3.53561e-01  1.00000e+00  4.56322e+03  3.11154e+03  1.25121e+02 
