# Code_Saturne plot output (1D profile)
#
# Iteration output: 4789
# Time output:      2.30007e+01
#
#COLUMN_TITLES: Distance | X | Y | Z | diameter_Field2 | temp_Field1 | temp_Field2 | Velocity_Field1[Z] | Velocity_Field2[Z] | vol_f_Field2 | mass_trans_Field1 | Xd_Field2 | BK | COAL | COMP | NUCL | W1 | MT | SMBR | ALPBB | CONDNUM | GAMA | GAMANUC | epsilon_Field1
 4.56474e-03  1.39645e-04  0.00000e+00  3.47944e+00  3.22987e-04  3.59767e+02  3.60055e+02  5.12081e+00  5.19466e+00  1.96770e-01  4.26622e+01  1.07872e+02  2.23382e+05 -4.86178e+05  7.72963e+02  0.00000e+00 -2.62023e+05  4.67947e+03 -2.57344e+05  1.96747e-01  1.00000e+00 -4.28052e+01  0.00000e+00  1.10505e+00 
 4.57812e-03  3.76525e-04  4.25872e-21  3.47944e+00  3.39594e-04  3.59768e+02  3.60055e+02  5.11955e+00  5.19763e+00  1.97799e-01  4.00449e+01  1.02596e+02  2.18437e+05 -4.47806e+05  7.35351e+02  0.00000e+00 -2.28633e+05  4.15576e+03 -2.24477e+05  1.97778e-01  1.00000e+00 -4.01795e+01  0.00000e+00  1.11749e+00 
 4.60371e-03  6.13858e-04  0.00000e+00  3.47944e+00  3.54500e-04  3.59769e+02  3.60055e+02  5.11689e+00  5.19853e+00  1.99489e-01  3.80093e+01  9.82826e+01  2.15152e+05 -4.20163e+05  7.04655e+02  0.00000e+00 -2.04307e+05  3.74665e+03 -2.00560e+05  1.99469e-01  1.00000e+00 -3.81378e+01  0.00000e+00  1.14166e+00 
 4.64138e-03  8.51483e-04  0.00000e+00  3.47944e+00  3.69277e-04  3.59771e+02  3.60055e+02  5.11303e+00  5.19801e+00  2.01896e-01  3.62326e+01  9.43496e+01  2.12769e+05 -3.97920e+05  6.76590e+02  0.00000e+00 -1.84475e+05  3.38778e+03 -1.81087e+05  2.01876e-01  1.00000e+00 -3.63560e+01  0.00000e+00  1.17790e+00 
 4.69084e-03  1.08931e-03  0.00000e+00  3.47944e+00  3.85121e-04  3.59774e+02  3.60055e+02  5.10785e+00  5.19628e+00  2.05034e-01  3.45228e+01  9.04680e+01  2.10566e+05 -3.77925e+05  6.48814e+02  0.00000e+00 -1.66710e+05  3.04783e+03 -1.63662e+05  2.05014e-01  1.00000e+00 -3.46416e+01  0.00000e+00  1.22651e+00 
 4.75174e-03  1.32727e-03  1.05001e-20  3.47944e+00  4.02519e-04  3.59778e+02  3.60055e+02  5.10139e+00  5.19332e+00  2.08854e-01  3.28067e+01  8.65577e+01  2.08137e+05 -3.58939e+05  6.20678e+02  0.00000e+00 -1.50181e+05  2.72056e+03 -1.47460e+05  2.08834e-01  1.00000e+00 -3.29211e+01  0.00000e+00  1.28803e+00 
 4.82366e-03  1.56534e-03  0.00000e+00  3.47944e+00  4.21616e-04  3.59783e+02  3.60055e+02  5.09380e+00  5.18722e+00  2.13330e-01  3.08693e+01  8.26370e+01  2.05255e+05 -3.40571e+05  5.92518e+02  0.00000e+00 -1.34724e+05  2.39280e+03 -1.32331e+05  2.13308e-01  1.00000e+00 -3.09787e+01  0.00000e+00  1.36321e+00 
 4.90611e-03  1.80349e-03  8.81027e-21  3.47944e+00  4.42327e-04  3.59788e+02  3.60055e+02  5.08487e+00  5.17829e+00  2.18417e-01  2.89278e+01  7.87679e+01  2.01831e+05 -3.22776e+05  5.64306e+02  0.00000e+00 -1.20380e+05  2.08769e+03 -1.18292e+05  2.18395e-01  1.00000e+00 -2.90324e+01  0.00000e+00  1.45275e+00 
 4.99859e-03  2.04170e-03  0.00000e+00  3.47944e+00  4.64398e-04  3.59795e+02  3.60055e+02  5.07443e+00  5.16717e+00  2.24123e-01  2.70400e+01  7.50243e+01  1.97913e+05 -3.05757e+05  5.36800e+02  0.00000e+00 -1.07307e+05  1.81152e+03 -1.05495e+05  2.24100e-01  1.00000e+00 -2.71400e+01  0.00000e+00  1.55764e+00 
 5.10055e-03  2.27996e-03  7.58893e-21  3.47944e+00  4.87390e-04  3.59802e+02  3.60055e+02  5.06233e+00  5.15412e+00  2.30336e-01  2.52390e+01  7.14852e+01  1.93721e+05 -2.89688e+05  5.10646e+02  0.00000e+00 -9.54564e+04  1.56781e+03 -9.38886e+04  2.30310e-01  1.00000e+00 -2.53349e+01  0.00000e+00  1.67937e+00 
 5.21143e-03  2.51826e-03  7.09702e-21  3.47944e+00  5.10729e-04  3.59810e+02  3.60055e+02  5.04848e+00  5.13920e+00  2.37059e-01  2.35582e+01  6.82185e+01  1.89474e+05 -2.74907e+05  4.86371e+02  0.00000e+00 -8.49460e+04  1.35707e+03 -8.35889e+04  2.37032e-01  1.00000e+00 -2.36505e+01  0.00000e+00  1.81911e+00 
 5.33068e-03  2.75659e-03  1.33300e-20  3.47944e+00  5.33710e-04  3.59819e+02  3.60055e+02  5.03276e+00  5.12235e+00  2.44131e-01  2.20071e+01  6.52812e+01  1.85514e+05 -2.61602e+05  4.64297e+02  0.00000e+00 -7.56235e+04  1.17813e+03 -7.44454e+04  2.44106e-01  1.00000e+00 -2.20965e+01  0.00000e+00  1.97866e+00 
 5.45775e-03  2.99495e-03  1.25651e-20  3.47944e+00  5.55611e-04  3.59829e+02  3.60055e+02  5.01509e+00  5.10351e+00  2.51507e-01  2.05961e+01  6.27080e+01  1.82099e+05 -2.50019e+05  4.44807e+02  0.00000e+00 -6.74748e+04  1.02822e+03 -6.64466e+04  2.51484e-01  1.00000e+00 -2.06831e+01  0.00000e+00  2.15926e+00 
 5.59212e-03  3.23333e-03  0.00000e+00  3.47944e+00  5.75720e-04  3.59839e+02  3.60055e+02  4.99538e+00  5.08260e+00  2.59084e-01  1.93182e+01  6.05179e+01  1.79489e+05 -2.40314e+05  4.27992e+02  0.00000e+00 -6.03977e+04  9.03681e+02 -5.94941e+04  2.59062e-01  1.00000e+00 -1.94035e+01  0.00000e+00  2.36248e+00 
 5.73326e-03  3.47172e-03  0.00000e+00  3.47944e+00  5.93462e-04  3.59850e+02  3.60055e+02  4.97355e+00  5.05953e+00  2.66917e-01  1.81700e+01  5.87087e+01  1.77838e+05 -2.32687e+05  4.13799e+02  0.00000e+00 -5.44354e+04  8.00536e+02 -5.36349e+04  2.66893e-01  1.00000e+00 -1.82544e+01  0.00000e+00  2.59044e+00 
 5.88069e-03  3.71014e-03 -5.35987e-21  3.47944e+00  6.08399e-04  3.59862e+02  3.60055e+02  4.94949e+00  5.03422e+00  2.74916e-01  1.71285e+01  5.72674e+01  1.77296e+05 -2.27145e+05  4.02036e+02  0.00000e+00 -4.94473e+04  7.14898e+02 -4.87324e+04  2.74888e-01  1.00000e+00 -1.72126e+01  0.00000e+00  2.84589e+00 
 6.03395e-03  3.94857e-03  5.10973e-21  3.47944e+00  6.20278e-04  3.59875e+02  3.60055e+02  4.92315e+00  5.00666e+00  2.83000e-01  1.61698e+01  5.61708e+01  1.77900e+05 -2.23636e+05  3.92616e+02  0.00000e+00 -4.53437e+04  6.43264e+02 -4.47005e+04  2.82965e-01  1.00000e+00 -1.62543e+01  0.00000e+00  3.12979e+00 
 6.19261e-03  4.18701e-03  0.00000e+00  3.47944e+00  6.28989e-04  3.59888e+02  3.60055e+02  4.89448e+00  4.97676e+00  2.91024e-01  1.52620e+01  5.53930e+01  1.79726e+05 -2.22061e+05  3.85260e+02  0.00000e+00 -4.19504e+04  5.82447e+02 -4.13680e+04  2.90987e-01  1.00000e+00 -1.53474e+01  0.00000e+00  3.44505e+00 
 6.35626e-03  4.42546e-03  0.00000e+00  3.47944e+00  6.34620e-04  3.59901e+02  3.60055e+02  4.86339e+00  4.94448e+00  2.99023e-01  1.43842e+01  5.49016e+01  1.82751e+05 -2.22396e+05  3.79773e+02  0.00000e+00 -3.92656e+04  5.29778e+02 -3.87359e+04  2.98976e-01  1.00000e+00 -1.44713e+01  0.00000e+00  3.79399e+00 
 6.52453e-03  4.66392e-03 -8.96437e-21  3.47944e+00  6.37304e-04  3.59915e+02  3.60055e+02  4.82981e+00  4.90971e+00  3.06867e-01  1.35053e+01  5.46706e+01  1.87028e+05 -2.24548e+05  3.75914e+02  0.00000e+00 -3.71443e+04  4.82898e+02 -3.66614e+04  3.06832e-01  1.00000e+00 -1.35946e+01  0.00000e+00  4.18085e+00 
 6.69707e-03  4.90238e-03  1.72236e-20  3.47944e+00  6.37288e-04  3.59930e+02  3.60055e+02  4.79359e+00  4.87232e+00  3.14620e-01  1.26040e+01  5.46721e+01  1.92532e+05 -2.28496e+05  3.73501e+02  0.00000e+00 -3.55911e+04  4.39879e+02 -3.51512e+04  3.14584e-01  1.00000e+00 -1.26960e+01  0.00000e+00  4.60879e+00 
 6.87356e-03  5.14086e-03  8.28595e-21  3.47944e+00  6.34767e-04  3.59945e+02  3.60055e+02  4.75467e+00  4.83223e+00  3.22201e-01  1.16523e+01  5.48895e+01  1.99349e+05 -2.34232e+05  3.72329e+02  0.00000e+00 -3.45103e+04  3.99018e+02 -3.41113e+04  3.22166e-01  1.00000e+00 -1.17476e+01  0.00000e+00  5.08391e+00 
 7.05370e-03  5.37934e-03 -1.59677e-20  3.47944e+00  6.30020e-04  3.59960e+02  3.60056e+02  4.71285e+00  4.78930e+00  3.29676e-01  1.06290e+01  5.53032e+01  2.07480e+05 -2.41816e+05  3.72263e+02  0.00000e+00 -3.39645e+04  3.58807e+02 -3.36057e+04  3.29642e-01  1.00000e+00 -1.07281e+01  0.00000e+00  5.61085e+00 
 7.23722e-03  5.61783e-03  0.00000e+00  3.47944e+00  6.23200e-04  3.59975e+02  3.60056e+02  4.66812e+00  4.74346e+00  3.36919e-01  9.50545e+00  5.59087e+01  2.17133e+05 -2.51313e+05  3.73164e+02  0.00000e+00 -3.38071e+04  3.17905e+02 -3.34892e+04  3.36888e-01  1.00000e+00 -9.60888e+00  0.00000e+00  6.19976e+00 
 7.42387e-03  5.85632e-03  0.00000e+00  3.47944e+00  6.14547e-04  3.59991e+02  3.60056e+02  4.62005e+00  4.69432e+00  3.44067e-01  8.25734e+00  5.66961e+01  2.28347e+05 -2.62939e+05  3.74979e+02  0.00000e+00 -3.42172e+04  2.74841e+02 -3.39423e+04  3.44038e-01  1.00000e+00 -8.36575e+00  0.00000e+00  6.85737e+00 
 7.61342e-03  6.09482e-03  0.00000e+00  3.47944e+00  6.04111e-04  3.60008e+02  3.60056e+02  4.56871e+00  4.64193e+00  3.50950e-01  6.85162e+00  5.76758e+01  2.41522e+05 -2.76901e+05  3.77625e+02  0.00000e+00 -3.50009e+04  2.28229e+02 -3.47726e+04  3.50923e-01  1.00000e+00 -6.96564e+00  0.00000e+00  7.60134e+00 
 7.80566e-03  6.33332e-03  0.00000e+00  3.47944e+00  5.92091e-04  3.60024e+02  3.60056e+02  4.51320e+00  4.58542e+00  3.57781e-01  5.25281e+00  5.88470e+01  2.56758e+05 -2.93648e+05  3.81111e+02  0.00000e+00 -3.65095e+04  1.76197e+02 -3.63333e+04  3.57754e-01  1.00000e+00 -5.37318e+00  0.00000e+00  8.44170e+00 
 8.00039e-03  6.57182e-03  0.00000e+00  3.47944e+00  5.78409e-04  3.60041e+02  3.60057e+02  4.45408e+00  4.52530e+00  3.64345e-01  3.41375e+00  6.02393e+01  2.74780e+05 -3.13658e+05  3.85417e+02  0.00000e+00 -3.84923e+04  1.16731e+02 -3.83756e+04  3.64319e-01  1.00000e+00 -3.54132e+00  0.00000e+00  9.41043e+00 
 8.19744e-03  6.81033e-03  1.31016e-20  3.47944e+00  5.63225e-04  3.60059e+02  3.60057e+02  4.38917e+00  4.45946e+00  3.70893e-01  1.27236e+00  6.18637e+01  2.95845e+05 -3.37741e+05  3.90575e+02  0.00000e+00 -4.15058e+04  4.68259e+01 -4.14590e+04  3.70867e-01  1.00000e+00 -1.40814e+00  0.00000e+00  1.05247e+01 
 8.39664e-03  7.04884e-03  0.00000e+00  3.47944e+00  5.46332e-04  3.60077e+02  3.60057e+02  4.32059e+00  4.38993e+00  3.77232e-01 -2.94795e+00  6.37769e+01  3.21219e+05 -3.66965e+05  3.96776e+02  0.00000e+00 -4.53495e+04 -8.83371e+01 -4.54378e+04  3.77207e-01  1.00000e+00  2.62081e+00  0.00000e+00  1.18430e+01 
 8.59784e-03  7.28736e-03  0.00000e+00  3.47944e+00  5.27844e-04  3.60096e+02  3.60057e+02  4.24261e+00  4.31109e+00  3.83624e-01 -9.90730e+00  6.60112e+01  3.51609e+05 -4.02849e+05  4.03661e+02  0.00000e+00 -5.08361e+04 -3.27834e+02 -5.11639e+04  3.83598e-01  1.00000e+00  9.55626e+00  0.00000e+00  1.34047e+01 
 8.80092e-03  7.52587e-03  0.00000e+00  3.47944e+00  5.07307e-04  3.60116e+02  3.60058e+02  4.16229e+00  4.22994e+00  3.89827e-01 -1.85440e+01  6.86840e+01  3.89664e+05 -4.47853e+05  4.11963e+02  0.00000e+00 -5.77771e+04 -6.38064e+02 -5.84152e+04  3.89804e-01  1.00000e+00  1.81647e+01  0.00000e+00  1.53361e+01 
 9.00573e-03  7.76439e-03 -1.17014e-20  3.47944e+00  4.84744e-04  3.60139e+02  3.60058e+02  4.06407e+00  4.13087e+00  3.96212e-01 -2.96847e+01  7.18815e+01  4.37048e+05 -5.05856e+05  4.21591e+02  0.00000e+00 -6.83857e+04 -1.05875e+03 -6.94444e+04  3.96188e-01  1.00000e+00  2.92718e+01  0.00000e+00  1.77059e+01 
 9.21216e-03  8.00291e-03  0.00000e+00  3.47944e+00  4.59322e-04  3.60164e+02  3.60059e+02  3.96809e+00  4.03381e+00  4.02512e-01 -4.47758e+01  7.58605e+01  5.00424e+05 -5.83165e+05  4.33848e+02  0.00000e+00 -8.23070e+04 -1.66534e+03 -8.39723e+04  4.02491e-01  1.00000e+00  4.43210e+01  0.00000e+00  2.08591e+01 
 9.42012e-03  8.24144e-03  0.00000e+00  3.47944e+00  4.30966e-04  3.60195e+02  3.60059e+02  3.83556e+00  3.89961e+00  4.09083e-01 -6.64415e+01  8.08528e+01  5.85232e+05 -6.90777e+05  4.47659e+02  0.00000e+00 -1.05097e+05 -2.59812e+03 -1.07695e+05  4.09060e-01  1.00000e+00  6.59341e+01  0.00000e+00  2.49957e+01 
 9.62949e-03  8.47996e-03  0.00000e+00  3.47944e+00  3.98166e-04  3.60235e+02  3.60060e+02  3.71422e+00  3.77220e+00  4.15790e-01 -1.00075e+02  8.75140e+01  7.11881e+05 -8.49637e+05  4.67937e+02  0.00000e+00 -1.37287e+05 -4.17528e+03 -1.41463e+05  4.15769e-01  1.00000e+00  9.94977e+01  0.00000e+00  3.12242e+01 
 9.84019e-03  8.71849e-03  0.00000e+00  3.47944e+00  3.60787e-04  3.60292e+02  3.60060e+02  3.51097e+00  3.56192e+00  4.22771e-01 -1.57790e+02  9.65821e+01  9.04262e+05 -1.10113e+06  4.89159e+02  0.00000e+00 -1.96375e+05 -7.15581e+03 -2.03531e+05  4.22743e-01  1.00000e+00  1.57118e+02  0.00000e+00  4.04533e+01 
 1.00521e-02  8.95702e-03  0.00000e+00  3.47944e+00  3.15868e-04  3.60384e+02  3.60061e+02  3.32893e+00  3.37330e+00  4.29950e-01 -2.76023e+02  1.10318e+02  1.25688e+06 -1.55021e+06  5.23247e+02  0.00000e+00 -2.92807e+05 -1.40771e+04 -3.06884e+05  4.29924e-01  1.00000e+00  2.75200e+02  0.00000e+00  5.78413e+01 
 1.02653e-02  9.19555e-03  0.00000e+00  3.47944e+00  2.62437e-04  3.60566e+02  3.60062e+02  2.96725e+00  3.00430e+00  4.38200e-01 -5.85431e+02  1.32781e+02  2.00052e+06 -2.47958e+06  5.56318e+02  0.00000e+00 -4.78506e+05 -3.53003e+04 -5.13806e+05  4.38165e-01  1.00000e+00  5.84356e+02  0.00000e+00  9.59492e+01 
 1.04795e-02  9.43408e-03  0.00000e+00  3.47944e+00  1.97896e-04  3.61103e+02  3.60063e+02  2.47353e+00  2.49483e+00  4.49192e-01 -5.37344e+03  1.76089e+02  4.32188e+06 -4.75116e+06  6.34083e+02  1.74191e+06  1.31326e+06 -1.32480e+06 -1.15367e+04  4.49172e-01  1.00000e+00  5.37184e+03  3.46289e+03  2.43170e+02 
