# Code_Saturne plot output (1D profile)
#
# Iteration output: 4754
# Time output:      2.30002e+01
#
#COLUMN_TITLES: Distance | X | Y | Z | diameter_Field2 | temp_Field1 | temp_Field2 | Velocity_Field1[Z] | Velocity_Field2[Z] | vol_f_Field2 | mass_trans_Field1 | Xd_Field2 | BK | COAL | COMP | NUCL | W1 | MT | SMBR | ALPBB | CONDNUM | GAMA | GAMANUC | epsilon_Field1
 4.56474e-03  1.39645e-04  0.00000e+00  3.47944e+00  2.09453e-04  3.59845e+02  3.60056e+02  4.97909e+00  5.02521e+00  1.54250e-01  4.52087e+01  1.66345e+02  1.80236e+05 -7.48060e+05  1.16721e+03  0.00000e+00 -5.66657e+05  2.31867e+04 -5.43470e+05  1.54268e-01  1.00000e+00 -4.50990e+01  0.00000e+00  9.20779e-01 
 4.57812e-03  3.76525e-04  4.25872e-21  3.47944e+00  2.44845e-04  3.59845e+02  3.60056e+02  4.97753e+00  5.03268e+00  1.55293e-01  3.69249e+01  1.42299e+02  2.00388e+05 -5.75672e+05  9.99832e+02  0.00000e+00 -3.74285e+05  1.60953e+04 -3.58189e+05  1.55313e-01  1.00000e+00 -3.68350e+01  0.00000e+00  9.32115e-01 
 4.60371e-03  6.13858e-04  0.00000e+00  3.47944e+00  2.68518e-04  3.59847e+02  3.60056e+02  4.97507e+00  5.03609e+00  1.57113e-01  3.29442e+01  1.29754e+02  2.06973e+05 -4.98625e+05  9.12513e+02  0.00000e+00 -2.90740e+05  1.29425e+04 -2.77797e+05  1.57131e-01  1.00000e+00 -3.28635e+01  0.00000e+00  9.54033e-01 
 4.64138e-03  8.51483e-04  0.00000e+00  3.47944e+00  2.86534e-04  3.59848e+02  3.60056e+02  4.97164e+00  5.03693e+00  1.59676e-01  3.05544e+01  1.21596e+02  2.11131e+05 -4.56306e+05  8.55586e+02  0.00000e+00 -2.44319e+05  1.10685e+04 -2.33251e+05  1.59691e-01  1.00000e+00 -3.04789e+01  0.00000e+00  9.86892e-01 
 4.69084e-03  1.08931e-03  0.00000e+00  3.47944e+00  3.02516e-04  3.59851e+02  3.60056e+02  4.96707e+00  5.03596e+00  1.63062e-01  2.88028e+01  1.15172e+02  2.14843e+05 -4.28509e+05  8.10608e+02  0.00000e+00 -2.12856e+05  9.67751e+03 -2.03178e+05  1.63074e-01  1.00000e+00 -2.87308e+01  0.00000e+00  1.03106e+00 
 4.75174e-03  1.32727e-03  1.05001e-20  3.47944e+00  3.18227e-04  3.59854e+02  3.60056e+02  4.96129e+00  5.03356e+00  1.67209e-01  2.73125e+01  1.09486e+02  2.18249e+05 -4.07453e+05  7.70660e+02  0.00000e+00 -1.88433e+05  8.50718e+03 -1.79926e+05  1.67219e-01  1.00000e+00 -2.72432e+01  0.00000e+00  1.08726e+00 
 4.82366e-03  1.56534e-03  0.00000e+00  3.47944e+00  3.34628e-04  3.59858e+02  3.60056e+02  4.95420e+00  5.02986e+00  1.72140e-01  2.59238e+01  1.04119e+02  2.21026e+05 -3.89747e+05  7.32848e+02  0.00000e+00 -1.67989e+05  7.45861e+03 -1.60530e+05  1.72147e-01  1.00000e+00 -2.58568e+01  0.00000e+00  1.15626e+00 
 4.90611e-03  1.80349e-03  8.81027e-21  3.47944e+00  3.52231e-04  3.59863e+02  3.60056e+02  4.94571e+00  5.02491e+00  1.77787e-01  2.45576e+01  9.89160e+01  2.22842e+05 -3.73624e+05  6.96069e+02  0.00000e+00 -1.50087e+05  6.49879e+03 -1.43588e+05  1.77794e-01  1.00000e+00 -2.44926e+01  0.00000e+00  1.23905e+00 
 4.99859e-03  2.04170e-03  0.00000e+00  3.47944e+00  3.71281e-04  3.59869e+02  3.60056e+02  4.93572e+00  5.01862e+00  1.84128e-01  2.31847e+01  9.38408e+01  2.23418e+05 -3.58254e+05  6.60106e+02  0.00000e+00 -1.34176e+05  5.61981e+03 -1.28556e+05  1.84135e-01  1.00000e+00 -2.31217e+01  0.00000e+00  1.33658e+00 
 5.10055e-03  2.27996e-03  7.58893e-21  3.47944e+00  3.91796e-04  3.59875e+02  3.60056e+02  4.92420e+00  5.01079e+00  1.91060e-01  2.17928e+01  8.89273e+01  2.22665e+05 -3.43196e+05  6.25084e+02  0.00000e+00 -1.19906e+05  4.82375e+03 -1.15082e+05  1.91071e-01  1.00000e+00 -2.17317e+01  0.00000e+00  1.45001e+00 
 5.21143e-03  2.51826e-03  7.09702e-21  3.47944e+00  4.13625e-04  3.59882e+02  3.60056e+02  4.91135e+00  4.99978e+00  1.98594e-01  2.02831e+01  8.42340e+01  2.20624e+05 -3.28503e+05  5.91563e+02  0.00000e+00 -1.07287e+05  4.09084e+03 -1.03197e+05  1.98609e-01  1.00000e+00 -2.02242e+01  0.00000e+00  1.58055e+00 
 5.33068e-03  2.75659e-03  1.33300e-20  3.47944e+00  4.36425e-04  3.59890e+02  3.60056e+02  4.89697e+00  4.98507e+00  2.06526e-01  1.87538e+01  7.98336e+01  2.17616e+05 -3.14138e+05  5.59579e+02  0.00000e+00 -9.59624e+04  3.44671e+03 -9.25157e+04  2.06547e-01  1.00000e+00 -1.86970e+01  0.00000e+00  1.73006e+00 
 5.45775e-03  2.99495e-03  1.25651e-20  3.47944e+00  4.59690e-04  3.59898e+02  3.60056e+02  4.88065e+00  4.96777e+00  2.14872e-01  1.72913e+01  7.57933e+01  2.13931e+05 -3.00478e+05  5.29990e+02  0.00000e+00 -8.60167e+04  2.89940e+03 -8.31173e+04  2.14899e-01  1.00000e+00 -1.72364e+01  0.00000e+00  1.89958e+00 
 5.59212e-03  3.23333e-03  0.00000e+00  3.47944e+00  4.82782e-04  3.59908e+02  3.60056e+02  4.86229e+00  4.94824e+00  2.23492e-01  1.59104e+01  7.21681e+01  2.10048e+05 -2.87796e+05  5.03234e+02  0.00000e+00 -7.72456e+04  2.44182e+03 -7.48037e+04  2.23524e-01  1.00000e+00 -1.58571e+01  0.00000e+00  2.09100e+00 
 5.73326e-03  3.47172e-03  0.00000e+00  3.47944e+00  5.05000e-04  3.59917e+02  3.60056e+02  4.84178e+00  4.92650e+00  2.32373e-01  1.46256e+01  6.89930e+01  2.06393e+05 -2.76518e+05  4.79570e+02  0.00000e+00 -6.96459e+04  2.06343e+03 -6.75825e+04  2.32409e-01  1.00000e+00 -1.45736e+01  0.00000e+00  2.30634e+00 
 5.88069e-03  3.71014e-03 -5.35987e-21  3.47944e+00  5.25621e-04  3.59928e+02  3.60056e+02  4.81902e+00  4.90249e+00  2.41410e-01  1.34313e+01  6.62865e+01  2.03392e+05 -2.66925e+05  4.59020e+02  0.00000e+00 -6.30738e+04  1.75203e+03 -6.13218e+04  2.41449e-01  1.00000e+00 -1.33802e+01  0.00000e+00  2.54809e+00 
 6.03395e-03  3.94857e-03  5.10973e-21  3.47944e+00  5.44015e-04  3.59938e+02  3.60056e+02  4.79392e+00  4.87615e+00  2.50543e-01  1.23197e+01  6.40454e+01  2.01319e+05 -2.59244e+05  4.41658e+02  0.00000e+00 -5.74830e+04  1.49566e+03 -5.59873e+04  2.50582e-01  1.00000e+00 -1.22691e+01  0.00000e+00  2.81769e+00 
 6.19261e-03  4.18701e-03  0.00000e+00  3.47944e+00  5.59672e-04  3.59950e+02  3.60056e+02  4.76642e+00  4.84740e+00  2.59651e-01  1.12696e+01  6.22538e+01  2.00439e+05 -2.53594e+05  4.27265e+02  0.00000e+00 -5.27282e+04  1.28280e+03 -5.14454e+04  2.59689e-01  1.00000e+00 -1.12191e+01  0.00000e+00  3.11807e+00 
 6.35626e-03  4.42546e-03  0.00000e+00  3.47944e+00  5.72298e-04  3.59961e+02  3.60056e+02  4.73641e+00  4.81617e+00  2.68701e-01  1.02633e+01  6.08806e+01  2.00865e+05 -2.50066e+05  4.15662e+02  0.00000e+00 -4.87855e+04  1.10351e+03 -4.76819e+04  2.68736e-01  1.00000e+00 -1.02125e+01  0.00000e+00  3.45146e+00 
 6.52453e-03  4.66392e-03 -8.96437e-21  3.47944e+00  5.81746e-04  3.59974e+02  3.60056e+02  4.70387e+00  4.78241e+00  2.77620e-01  9.27408e+00  5.98919e+01  2.02709e+05 -2.48678e+05  4.06539e+02  0.00000e+00 -4.55630e+04  9.48888e+02 -4.46141e+04  2.77653e-01  1.00000e+00 -9.22264e+00  0.00000e+00  3.82164e+00 
 6.69707e-03  4.90238e-03  1.72236e-20  3.47944e+00  5.88064e-04  3.59986e+02  3.60057e+02  4.66865e+00  4.74602e+00  2.86408e-01  8.27931e+00  5.92487e+01  2.05983e+05 -2.49430e+05  3.99635e+02  0.00000e+00 -4.30473e+04  8.11666e+02 -4.22356e+04  2.86437e-01  1.00000e+00 -8.22682e+00  0.00000e+00  4.23178e+00 
 6.87356e-03  5.14086e-03  8.28595e-21  3.47944e+00  5.91349e-04  3.59999e+02  3.60057e+02  4.63071e+00  4.70691e+00  2.94977e-01  7.25086e+00  5.89197e+01  2.10781e+05 -2.52292e+05  3.94630e+02  0.00000e+00 -4.11164e+04  6.85616e+02 -4.04308e+04  2.95003e-01  1.00000e+00 -7.19698e+00  0.00000e+00  4.68766e+00 
 7.05370e-03  5.37934e-03 -1.59677e-20  3.47944e+00  5.91836e-04  3.60012e+02  3.60057e+02  4.58985e+00  4.66493e+00  3.03384e-01  6.16502e+00  5.88714e+01  2.17084e+05 -2.57298e+05  3.91314e+02  0.00000e+00 -3.98223e+04  5.65425e+02 -3.92569e+04  3.03407e-01  1.00000e+00 -6.10939e+00  0.00000e+00  5.19372e+00 
 7.23722e-03  5.61783e-03  0.00000e+00  3.47944e+00  5.89690e-04  3.60026e+02  3.60057e+02  4.54603e+00  4.62000e+00  3.11519e-01  4.99335e+00  5.90859e+01  2.25071e+05 -2.64470e+05  3.89433e+02  0.00000e+00 -3.90101e+04  4.46489e+02 -3.85636e+04  3.11540e-01  1.00000e+00 -4.93562e+00  0.00000e+00  5.75954e+00 
 7.42387e-03  5.85632e-03  0.00000e+00  3.47944e+00  5.85191e-04  3.60039e+02  3.60057e+02  4.49885e+00  4.57176e+00  3.19511e-01  3.70894e+00  5.95404e+01  2.34740e+05 -2.73973e+05  3.88857e+02  0.00000e+00 -3.88445e+04  3.24298e+02 -3.85202e+04  3.19530e-01  1.00000e+00 -3.64874e+00  0.00000e+00  6.39148e+00 
 7.61342e-03  6.09482e-03  0.00000e+00  3.47944e+00  5.78454e-04  3.60054e+02  3.60057e+02  4.44839e+00  4.52025e+00  3.27198e-01  2.27911e+00  6.02341e+01  2.46450e+05 -2.85946e+05  3.89404e+02  0.00000e+00 -3.91063e+04  1.94578e+02 -3.89117e+04  3.27216e-01  1.00000e+00 -2.21607e+00  0.00000e+00  7.10609e+00 
 7.80566e-03  6.33332e-03  0.00000e+00  3.47944e+00  5.69741e-04  3.60068e+02  3.60058e+02  4.39378e+00  4.46465e+00  3.34786e-01  6.66846e-01  6.11556e+01  2.60249e+05 -3.00750e+05  3.91022e+02  0.00000e+00 -4.01100e+04  5.23217e+01 -4.00576e+04  3.34804e-01  1.00000e+00 -6.00529e-01  0.00000e+00  7.91310e+00 
 8.00039e-03  6.57182e-03  0.00000e+00  3.47944e+00  5.59079e-04  3.60083e+02  3.60058e+02  4.33556e+00  4.40544e+00  3.42063e-01 -2.76504e+00  6.23222e+01  2.76781e+05 -3.18704e+05  3.93599e+02  0.00000e+00 -4.15294e+04 -2.54046e+02 -4.17835e+04  3.42083e-01  1.00000e+00  2.92352e+00  0.00000e+00  8.84246e+00 
 8.19744e-03  6.81033e-03  1.31016e-20  3.47944e+00  5.46669e-04  3.60098e+02  3.60058e+02  4.27161e+00  4.34056e+00  3.49251e-01 -7.66112e+00  6.37374e+01  2.96267e+05 -3.40492e+05  3.97149e+02  0.00000e+00 -4.38278e+04 -6.81450e+02 -4.45093e+04  3.49268e-01  1.00000e+00  7.82904e+00  0.00000e+00  9.91100e+00 
 8.39664e-03  7.04884e-03  0.00000e+00  3.47944e+00  5.32323e-04  3.60114e+02  3.60058e+02  4.20399e+00  4.27200e+00  3.56207e-01 -1.34737e+01  6.54554e+01  3.19896e+05 -3.67154e+05  4.01839e+02  0.00000e+00 -4.68569e+04 -1.19653e+03 -4.80534e+04  3.56223e-01  1.00000e+00  1.36525e+01  0.00000e+00  1.11736e+01 
 8.59784e-03  7.28736e-03  0.00000e+00  3.47944e+00  5.16140e-04  3.60132e+02  3.60059e+02  4.12716e+00  4.19433e+00  3.63175e-01 -2.05606e+01  6.75082e+01  3.48359e+05 -4.00147e+05  4.07302e+02  0.00000e+00 -5.13801e+04 -1.83981e+03 -5.32199e+04  3.63187e-01  1.00000e+00  2.07520e+01  0.00000e+00  1.26686e+01 
 8.80092e-03  7.52587e-03  0.00000e+00  3.47944e+00  4.97728e-04  3.60151e+02  3.60059e+02  4.04788e+00  4.11422e+00  3.69914e-01 -2.94722e+01  7.00059e+01  3.84151e+05 -4.41680e+05  4.14214e+02  0.00000e+00 -5.71144e+04 -2.67886e+03 -5.97933e+04  3.69926e-01  1.00000e+00  2.96786e+01  0.00000e+00  1.45147e+01 
 9.00573e-03  7.76439e-03 -1.17014e-20  3.47944e+00  4.77159e-04  3.60172e+02  3.60059e+02  3.95114e+00  4.01668e+00  3.76811e-01 -4.10936e+01  7.30242e+01  4.28744e+05 -4.95195e+05  4.22420e+02  0.00000e+00 -6.60287e+04 -3.81908e+03 -6.98478e+04  3.76819e-01  1.00000e+00  4.13178e+01  0.00000e+00  1.67788e+01 
 9.21216e-03  8.00291e-03  0.00000e+00  3.47944e+00  4.53694e-04  3.60198e+02  3.60060e+02  3.85636e+00  3.92090e+00  3.83587e-01 -5.69892e+01  7.68015e+01  4.88339e+05 -5.66150e+05  4.33102e+02  0.00000e+00 -7.73782e+04 -5.46565e+03 -8.28439e+04  3.83596e-01  1.00000e+00  5.72355e+01  0.00000e+00  1.97875e+01 
 9.42012e-03  8.24144e-03  0.00000e+00  3.47944e+00  4.27349e-04  3.60229e+02  3.60060e+02  3.72585e+00  3.78899e+00  3.90654e-01 -7.99150e+01  8.15369e+01  5.67596e+05 -6.63895e+05  4.45057e+02  0.00000e+00 -9.58541e+04 -7.98265e+03 -1.03837e+05  3.90658e-01  1.00000e+00  8.01889e+01  0.00000e+00  2.37296e+01 
 9.62949e-03  8.47996e-03  0.00000e+00  3.47944e+00  3.96811e-04  3.60271e+02  3.60061e+02  3.60533e+00  3.66325e+00  3.97818e-01 -1.15531e+02  8.78126e+01  6.84868e+05 -8.05435e+05  4.62811e+02  0.00000e+00 -1.20104e+05 -1.21957e+04 -1.32300e+05  3.97820e-01  1.00000e+00  1.15842e+02  0.00000e+00  2.96446e+01 
 9.84019e-03  8.71849e-03  0.00000e+00  3.47944e+00  3.62152e-04  3.60332e+02  3.60061e+02  3.40728e+00  3.45893e+00  4.05257e-01 -1.76019e+02  9.62178e+01  8.60160e+05 -1.02224e+06  4.80364e+02  0.00000e+00 -1.61596e+05 -1.99732e+04 -1.81569e+05  4.05251e-01  1.00000e+00  1.76379e+02  0.00000e+00  3.84221e+01 
 1.00521e-02  8.95702e-03  0.00000e+00  3.47944e+00  3.21056e-04  3.60430e+02  3.60062e+02  3.22597e+00  3.27095e+00  4.12904e-01 -2.96907e+02  1.08535e+02  1.17201e+06 -1.38477e+06  5.08477e+02  0.00000e+00 -2.12244e+05 -3.72787e+04 -2.49522e+05  4.12899e-01  1.00000e+00  2.97340e+02  0.00000e+00  5.48794e+01 
 1.02653e-02  9.19555e-03  0.00000e+00  3.47944e+00  2.74095e-04  3.60626e+02  3.60063e+02  2.87191e+00  2.91070e+00  4.21644e-01 -5.94808e+02  1.27133e+02  1.78716e+06 -2.02658e+06  5.26049e+02  0.00000e+00 -2.38900e+05 -8.56189e+04 -3.24519e+05  4.21636e-01  1.00000e+00  5.95356e+02  0.00000e+00  9.09358e+01 
 1.04795e-02  9.43408e-03  0.00000e+00  3.47944e+00  2.24474e-04  3.61188e+02  3.60064e+02  2.38682e+00  2.41170e+00  4.32965e-01 -5.00249e+03  1.55239e+02  3.38955e+06 -2.85115e+06  5.49911e+02  1.11565e+06  1.65461e+06 -1.65206e+06  2.55285e+03  4.32973e-01  1.00000e+00  5.00323e+03  3.33252e+03  2.30628e+02 
