# Code_Saturne plot output (1D profile)
#
# Iteration output: 4942
# Time output:      2.30005e+01
#
#COLUMN_TITLES: Distance | X | Y | Z | diameter_Field2 | temp_Field1 | temp_Field2 | Velocity_Field1[Z] | Velocity_Field2[Z] | vol_f_Field2 | mass_trans_Field1 | Xd_Field2 | BK | COAL | COMP | NUCL | W1 | MT | SMBR | ALPBB | CONDNUM | GAMA | GAMANUC | epsilon_Field1
 4.56474e-03  1.39645e-04  0.00000e+00  3.47944e+00  4.36162e-04  3.60025e+02  3.60058e+02  5.37254e+00  5.46954e+00  2.63194e-01  6.29375e+00  7.98687e+01  3.80570e+05 -6.01189e+05  6.40886e+02  0.00000e+00 -2.19978e+05  8.12017e+02 -2.19166e+05  2.63190e-01  1.00000e+00 -6.34421e+00  0.00000e+00  1.50441e+00 
 4.57812e-03  3.76525e-04  4.25872e-21  3.47944e+00  4.47085e-04  3.60025e+02  3.60058e+02  5.37129e+00  5.46931e+00  2.64025e-01  6.04278e+00  7.79174e+01  3.72488e+05 -5.76047e+05  6.25217e+02  0.00000e+00 -2.02934e+05  7.58238e+02 -2.02176e+05  2.64020e-01  1.00000e+00 -6.09159e+00  0.00000e+00  1.51914e+00 
 4.60371e-03  6.13858e-04  0.00000e+00  3.47944e+00  4.55795e-04  3.60026e+02  3.60058e+02  5.36838e+00  5.46670e+00  2.65269e-01  5.81547e+00  7.64284e+01  3.68153e+05 -5.59604e+05  6.13152e+02  0.00000e+00 -1.90838e+05  7.12498e+02 -1.90125e+05  2.65265e-01  1.00000e+00 -5.86316e+00  0.00000e+00  1.54788e+00 
 4.64138e-03  8.51483e-04  0.00000e+00  3.47944e+00  4.64405e-04  3.60027e+02  3.60058e+02  5.36400e+00  5.46226e+00  2.67117e-01  5.57130e+00  7.50114e+01  3.65365e+05 -5.46265e+05  6.01529e+02  0.00000e+00 -1.80298e+05  6.65419e+02 -1.79633e+05  2.67113e-01  1.00000e+00 -5.61806e+00  0.00000e+00  1.59093e+00 
 4.69084e-03  1.08931e-03  0.00000e+00  3.47944e+00  4.73897e-04  3.60029e+02  3.60058e+02  5.35806e+00  5.45604e+00  2.69521e-01  5.29259e+00  7.35089e+01  3.63101e+05 -5.33334e+05  5.89093e+02  0.00000e+00 -1.69645e+05  6.14109e+02 -1.69031e+05  2.69516e-01  1.00000e+00 -5.33844e+00  0.00000e+00  1.64879e+00 
 4.75174e-03  1.32727e-03  1.05001e-20  3.47944e+00  4.84582e-04  3.60031e+02  3.60058e+02  5.35055e+00  5.44804e+00  2.72469e-01  4.97740e+00  7.18881e+01  3.60909e+05 -5.19960e+05  5.75588e+02  0.00000e+00 -1.58475e+05  5.58889e+02 -1.57917e+05  2.72465e-01  1.00000e+00 -5.02232e+00  0.00000e+00  1.72212e+00 
 4.82366e-03  1.56534e-03  0.00000e+00  3.47944e+00  4.96485e-04  3.60033e+02  3.60058e+02  5.34144e+00  5.43825e+00  2.75955e-01  4.62953e+00  7.01647e+01  3.58579e+05 -5.05964e+05  5.61146e+02  0.00000e+00 -1.46823e+05  5.01191e+02 -1.46322e+05  2.75951e-01  1.00000e+00 -4.67351e+00  0.00000e+00  1.81170e+00 
 4.90611e-03  1.80349e-03  8.81027e-21  3.47944e+00  5.09411e-04  3.60035e+02  3.60058e+02  5.33064e+00  5.42664e+00  2.79930e-01  4.25538e+00  6.83843e+01  3.56126e+05 -4.91543e+05  5.46140e+02  0.00000e+00 -1.34871e+05  4.42885e+02 -1.34428e+05  2.79928e-01  1.00000e+00 -4.29843e+00  0.00000e+00  1.91855e+00 
 4.99859e-03  2.04170e-03  0.00000e+00  3.47944e+00  5.23049e-04  3.60038e+02  3.60058e+02  5.31811e+00  5.41317e+00  2.84382e-01  3.86206e+00  6.66012e+01  3.53649e+05 -4.77117e+05  5.31006e+02  0.00000e+00 -1.22936e+05  3.85643e+02 -1.22551e+05  2.84382e-01  1.00000e+00 -3.90422e+00  0.00000e+00  2.04371e+00 
 5.10055e-03  2.27996e-03  7.58893e-21  3.47944e+00  5.36947e-04  3.60042e+02  3.60058e+02  5.30377e+00  5.39780e+00  2.89234e-01  3.45577e+00  6.48774e+01  3.51420e+05 -4.63190e+05  5.16248e+02  0.00000e+00 -1.11254e+05  3.30845e+02 -1.10923e+05  2.89234e-01  1.00000e+00 -3.49713e+00  0.00000e+00  2.18849e+00 
 5.21143e-03  2.51826e-03  7.09702e-21  3.47944e+00  5.50600e-04  3.60045e+02  3.60058e+02  5.28756e+00  5.38049e+00  2.94461e-01  3.04138e+00  6.32687e+01  3.49706e+05 -4.50356e+05  5.02331e+02  0.00000e+00 -1.00148e+05  2.79299e+02 -9.98689e+04  2.94462e-01  1.00000e+00 -3.08208e+00  0.00000e+00  2.35398e+00 
 5.33068e-03  2.75659e-03  1.33300e-20  3.47944e+00  5.63445e-04  3.60049e+02  3.60058e+02  5.26940e+00  5.36118e+00  2.99954e-01  2.62132e+00  6.18265e+01  3.48914e+05 -4.39136e+05  4.89578e+02  0.00000e+00 -8.97324e+04  2.31372e+02 -8.95010e+04  2.99956e-01  1.00000e+00 -2.66152e+00  0.00000e+00  2.54188e+00 
 5.45775e-03  2.99495e-03  1.25651e-20  3.47944e+00  5.74984e-04  3.60053e+02  3.60058e+02  5.24923e+00  5.33982e+00  3.05726e-01  2.19621e+00  6.05858e+01  3.49303e+05 -4.30082e+05  4.78358e+02  0.00000e+00 -8.03010e+04  1.86893e+02 -8.01141e+04  3.05728e-01  1.00000e+00 -2.23612e+00  0.00000e+00  2.75332e+00 
 5.59212e-03  3.23333e-03  0.00000e+00  3.47944e+00  5.84773e-04  3.60057e+02  3.60058e+02  5.22699e+00  5.31636e+00  3.11699e-01  1.76392e+00  5.95717e+01  3.51207e+05 -4.23568e+05  4.68771e+02  0.00000e+00 -7.18920e+04  1.45392e+02 -7.17466e+04  3.11701e-01  1.00000e+00 -1.80377e+00  0.00000e+00  2.99035e+00 
 5.73326e-03  3.47172e-03  0.00000e+00  3.47944e+00  5.92520e-04  3.60062e+02  3.60058e+02  5.20261e+00  5.29076e+00  3.17865e-01  1.32087e+00  5.87929e+01  3.54807e+05 -4.19872e+05  4.60936e+02  0.00000e+00 -6.46039e+04  1.06162e+02 -6.44977e+04  3.17864e-01  1.00000e+00 -1.36090e+00  0.00000e+00  3.25464e+00 
 5.88069e-03  3.71014e-03 -5.35987e-21  3.47944e+00  5.98041e-04  3.60067e+02  3.60058e+02  5.17604e+00  5.26295e+00  3.24149e-01  8.61854e-01  5.82503e+01  3.60280e+05 -4.19122e+05  4.54860e+02  0.00000e+00 -5.83874e+04  6.83858e+01 -5.83190e+04  3.24143e-01  1.00000e+00 -9.02295e-01  0.00000e+00  3.54817e+00 
 6.03395e-03  3.94857e-03  5.10973e-21  3.47944e+00  6.01317e-04  3.60072e+02  3.60058e+02  5.14722e+00  5.23290e+00  3.30535e-01  3.81425e-01  5.79331e+01  3.67685e+05 -4.21371e+05  4.50405e+02  0.00000e+00 -5.32357e+04  3.12338e+01 -5.32044e+04  3.30525e-01  1.00000e+00 -4.22519e-01  0.00000e+00  3.87284e+00 
 6.19261e-03  4.18701e-03  0.00000e+00  3.47944e+00  6.02381e-04  3.60076e+02  3.60058e+02  5.11611e+00  5.20057e+00  3.36888e-01 -3.82076e-01  5.78309e+01  3.77221e+05 -4.26548e+05  4.47297e+02  0.00000e+00 -4.88800e+04 -2.07810e+01 -4.89007e+04  3.36875e-01  1.00000e+00  2.87026e-01  0.00000e+00  4.23253e+00 
 6.35626e-03  4.42546e-03  0.00000e+00  3.47944e+00  6.01412e-04  3.60081e+02  3.60058e+02  5.08260e+00  5.16587e+00  3.43242e-01 -1.61762e+00  5.79243e+01  3.88804e+05 -4.34637e+05  4.45532e+02  0.00000e+00 -4.53871e+04 -1.08192e+02 -4.54953e+04  3.43229e-01  1.00000e+00  1.52007e+00  0.00000e+00  4.62869e+00 
 6.52453e-03  4.66392e-03 -8.96437e-21  3.47944e+00  5.98547e-04  3.60086e+02  3.60059e+02  5.04666e+00  5.12874e+00  3.49516e-01 -2.94467e+00  5.82017e+01  4.02621e+05 -4.45611e+05  4.44946e+02  0.00000e+00 -4.25451e+04 -1.99754e+02 -4.27449e+04  3.49502e-01  1.00000e+00  2.84417e+00  0.00000e+00  5.06648e+00 
 6.69707e-03  4.90238e-03  1.72236e-20  3.47944e+00  5.94016e-04  3.60092e+02  3.60059e+02  5.00813e+00  5.08906e+00  3.55749e-01 -4.38220e+00  5.86459e+01  4.18655e+05 -4.59480e+05  4.45409e+02  0.00000e+00 -4.03790e+04 -2.97466e+02 -4.06765e+04  3.55733e-01  1.00000e+00  4.27828e+00  0.00000e+00  5.54956e+00 
 6.87356e-03  5.14086e-03  8.28595e-21  3.47944e+00  5.87939e-04  3.60097e+02  3.60059e+02  4.96694e+00  5.04673e+00  3.61862e-01 -5.94975e+00  5.92523e+01  4.37182e+05 -4.76341e+05  4.46806e+02  0.00000e+00 -3.87122e+04 -4.03455e+02 -3.91157e+04  3.61845e-01  1.00000e+00  5.84194e+00  0.00000e+00  6.08494e+00 
 7.05370e-03  5.37934e-03 -1.59677e-20  3.47944e+00  5.80532e-04  3.60102e+02  3.60059e+02  4.92287e+00  5.00156e+00  3.67934e-01 -7.67364e+00  6.00085e+01  4.58221e+05 -4.96338e+05  4.49033e+02  0.00000e+00 -3.76683e+04 -5.20144e+02 -3.81885e+04  3.67916e-01  1.00000e+00  7.56145e+00  0.00000e+00  6.67793e+00 
 7.23722e-03  5.61783e-03  0.00000e+00  3.47944e+00  5.71832e-04  3.60107e+02  3.60059e+02  4.87586e+00  4.95344e+00  3.73852e-01 -9.58292e+00  6.09218e+01  4.82320e+05 -5.19767e+05  4.52033e+02  0.00000e+00 -3.69949e+04 -6.50595e+02 -3.76455e+04  3.73833e-01  1.00000e+00  9.46587e+00  0.00000e+00  7.34031e+00 
 7.42387e-03  5.85632e-03  0.00000e+00  3.47944e+00  5.62028e-04  3.60112e+02  3.60059e+02  4.82542e+00  4.90194e+00  3.79737e-01 -1.17199e+01  6.19848e+01  5.09554e+05 -5.46974e+05  4.55762e+02  0.00000e+00 -3.69636e+04 -7.98439e+02 -3.77621e+04  3.79717e-01  1.00000e+00  1.15974e+01  0.00000e+00  8.07959e+00 
 7.61342e-03  6.09482e-03  0.00000e+00  3.47944e+00  5.51050e-04  3.60118e+02  3.60060e+02  4.77168e+00  4.84712e+00  3.85439e-01 -1.41358e+01  6.32200e+01  5.40901e+05 -5.78600e+05  4.60245e+02  0.00000e+00 -3.72393e+04 -9.69024e+02 -3.82083e+04  3.85416e-01  1.00000e+00  1.40073e+01  0.00000e+00  8.91592e+00 
 7.80566e-03  6.33332e-03  0.00000e+00  3.47944e+00  5.39073e-04  3.60124e+02  3.60060e+02  4.71366e+00  4.78807e+00  3.91135e-01 -1.69061e+01  6.46250e+01  5.76536e+05 -6.15317e+05  4.65437e+02  0.00000e+00 -3.83160e+04 -1.16872e+03 -3.94847e+04  3.91111e-01  1.00000e+00  1.67709e+01  0.00000e+00  9.86074e+00 
 8.00039e-03  6.57182e-03  0.00000e+00  3.47944e+00  5.25908e-04  3.60130e+02  3.60060e+02  4.65204e+00  4.72543e+00  3.96646e-01 -2.01319e+01  6.62432e+01  6.18168e+05 -6.58392e+05  4.71461e+02  0.00000e+00 -3.97534e+04 -1.40804e+03 -4.11615e+04  3.96622e-01  1.00000e+00  1.99893e+01  0.00000e+00  1.09505e+01 
 8.19744e-03  6.81033e-03  1.31016e-20  3.47944e+00  5.11722e-04  3.60137e+02  3.60060e+02  4.58431e+00  4.65672e+00  4.02166e-01 -2.39595e+01  6.80800e+01  6.66296e+05 -7.09019e+05  4.78199e+02  0.00000e+00 -4.22448e+04 -1.69990e+03 -4.39447e+04  4.02144e-01  1.00000e+00  2.38085e+01  0.00000e+00  1.22059e+01 
 8.39664e-03  7.04884e-03  0.00000e+00  3.47944e+00  4.96190e-04  3.60144e+02  3.60061e+02  4.51315e+00  4.58456e+00  4.07533e-01 -2.86077e+01  7.02114e+01  7.23869e+05 -7.69791e+05  4.86234e+02  0.00000e+00 -4.54362e+04 -2.06705e+03 -4.75032e+04  4.07516e-01  1.00000e+00  2.84471e+01  0.00000e+00  1.36923e+01 
 8.59784e-03  7.28736e-03  0.00000e+00  3.47944e+00  4.79474e-04  3.60153e+02  3.60061e+02  4.43165e+00  4.50207e+00  4.12998e-01 -3.43942e+01  7.26598e+01  7.92229e+05 -8.43169e+05  4.94818e+02  0.00000e+00 -5.04453e+04 -2.53934e+03 -5.29847e+04  4.12987e-01  1.00000e+00  3.42226e+01  0.00000e+00  1.54549e+01 
 8.80092e-03  7.52587e-03  0.00000e+00  3.47944e+00  4.60997e-04  3.60163e+02  3.60061e+02  4.34869e+00  4.41803e+00  4.18338e-01 -4.18564e+01  7.55726e+01  8.77702e+05 -9.34701e+05  5.05065e+02  0.00000e+00 -5.64942e+04 -3.17497e+03 -5.96691e+04  4.18330e-01  1.00000e+00  4.16718e+01  0.00000e+00  1.76448e+01 
 9.00573e-03  7.76439e-03 -1.17014e-20  3.47944e+00  4.40935e-04  3.60175e+02  3.60062e+02  4.24559e+00  4.31345e+00  4.23854e-01 -5.18065e+01  7.90119e+01  9.83235e+05 -1.05059e+06  5.16464e+02  0.00000e+00 -6.68388e+04 -4.05734e+03 -7.08962e+04  4.23844e-01  1.00000e+00  5.16067e+01  0.00000e+00  2.03306e+01 
 9.21216e-03  8.00291e-03  0.00000e+00  3.47944e+00  4.18191e-04  3.60190e+02  3.60062e+02  4.14928e+00  4.21386e+00  4.29339e-01 -6.57673e+01  8.33097e+01  1.12546e+06 -1.20507e+06  5.31159e+02  0.00000e+00 -7.90820e+04 -5.36431e+03 -8.44463e+04  4.29330e-01  1.00000e+00  6.55486e+01  0.00000e+00  2.39550e+01 
 9.42012e-03  8.24144e-03  0.00000e+00  3.47944e+00  3.93127e-04  3.60211e+02  3.60063e+02  4.00678e+00  4.06518e+00  4.35107e-01 -8.62697e+01  8.86221e+01  1.31370e+06 -1.41533e+06  5.47597e+02  0.00000e+00 -1.01087e+05 -7.38982e+03 -1.08477e+05  4.35098e-01  1.00000e+00  8.60280e+01  0.00000e+00  2.87119e+01 
 9.62949e-03  8.47996e-03  0.00000e+00  3.47944e+00  3.64103e-04  3.60241e+02  3.60063e+02  3.88240e+00  3.93458e+00  4.40949e-01 -1.19348e+02  9.56874e+01  1.59295e+06 -1.72352e+06  5.70210e+02  0.00000e+00 -1.30000e+05 -1.08973e+04 -1.40898e+05  4.40943e-01  1.00000e+00  1.19075e+02  0.00000e+00  3.58175e+01 
 9.84019e-03  8.71849e-03  0.00000e+00  3.47944e+00  3.31311e-04  3.60286e+02  3.60064e+02  3.66903e+00  3.71489e+00  4.47000e-01 -1.77642e+02  1.05160e+02  2.01186e+06 -2.19869e+06  5.93953e+02  0.00000e+00 -1.86241e+05 -1.75926e+04 -2.03833e+05  4.46995e-01  1.00000e+00  1.77327e+02  0.00000e+00  4.63301e+01 
 1.00521e-02  8.95702e-03  0.00000e+00  3.47944e+00  2.91048e-04  3.60366e+02  3.60065e+02  3.48254e+00  3.52261e+00  4.53292e-01 -3.01188e+02  1.19709e+02  2.78497e+06 -3.05427e+06  6.34661e+02  0.00000e+00 -2.68662e+05 -3.34990e+04 -3.02161e+05  4.53295e-01  1.00000e+00  3.00806e+02  0.00000e+00  6.62371e+01 
 1.02653e-02  9.19555e-03  0.00000e+00  3.47944e+00  2.43365e-04  3.60534e+02  3.60066e+02  3.10038e+00  3.13359e+00  4.60360e-01 -6.32023e+02  1.43166e+02  4.38867e+06 -4.77792e+06  6.72321e+02  0.00000e+00 -3.88583e+05 -8.28158e+04 -4.71399e+05  4.60379e-01  1.00000e+00  6.31532e+02  0.00000e+00  1.09534e+02 
 1.04795e-02  9.43408e-03  0.00000e+00  3.47944e+00  1.87879e-04  3.61061e+02  3.60067e+02  2.59251e+00  2.61342e+00  4.70114e-01 -5.45246e+03  1.85452e+02  9.14569e+06 -8.45400e+06  7.47425e+02  1.09297e+06  1.78540e+06 -1.80155e+06 -1.61431e+04  4.70159e-01  1.00000e+00  5.45176e+03  3.40140e+03  2.76515e+02 
