# Code_Saturne plot output (1D profile)
#
# Iteration output: 3613
# Time output:      2.30003e+01
#
#COLUMN_TITLES: Distance | X | Y | Z | diameter_Field2 | temp_Field1 | temp_Field2 | Velocity_Field1[Z] | Velocity_Field2[Z] | vol_f_Field2 | mass_trans_Field1 | Xd_Field2 | BK | COAL | COMP | NUCL | W1 | MT | SMBR | ALPBB | CONDNUM | GAMA | GAMANUC | epsilon_Field1
 4.56474e-03  1.39645e-04  0.00000e+00  3.47944e+00  3.74922e-05  3.58661e+02  3.60050e+02  4.23249e+00  4.23658e+00  6.13003e-03  9.93472e+01  9.29631e+02  1.55795e-29 -3.79360e+05  4.35691e+03  0.00000e+00 -3.75003e+05  4.50394e+06  4.12893e+06  6.12655e-03  1.00000e+00 -9.95361e+01  0.00000e+00  3.10330e-01 
 4.57812e-03  3.76525e-04  4.25872e-21  3.47944e+00  5.06058e-05  3.58665e+02  3.60050e+02  4.23209e+00  4.23840e+00  6.55478e-03  7.04984e+01  6.88734e+02  1.31539e-14 -2.44646e+05  3.21361e+03  0.00000e+00 -2.41432e+05  2.21406e+06  1.97262e+06  6.55154e-03  1.00000e+00 -7.06330e+01  0.00000e+00  3.13582e-01 
 4.60371e-03  6.13858e-04  0.00000e+00  3.47944e+00  6.18914e-05  3.58674e+02  3.60050e+02  4.23073e+00  4.23920e+00  7.17609e-03  5.87508e+01  5.63146e+02  4.42522e-08 -1.91363e+05  2.62510e+03  0.00000e+00 -1.88738e+05  1.37793e+06  1.18919e+06  7.17283e-03  1.00000e+00 -5.88638e+01  0.00000e+00  3.19952e-01 
 4.64138e-03  8.51483e-04  0.00000e+00  3.47944e+00  7.14822e-05  3.58688e+02  3.60050e+02  4.22868e+00  4.23899e+00  8.05029e-03  5.41299e+01  4.87588e+02  1.41647e-04 -1.69489e+05  2.27199e+03  0.00000e+00 -1.67217e+05  9.79803e+05  8.12586e+05  8.04685e-03  1.00000e+00 -5.42350e+01  0.00000e+00  3.29511e-01 
 4.69084e-03  1.08931e-03  0.00000e+00  3.47944e+00  8.01324e-05  3.58708e+02  3.60050e+02  4.22592e+00  4.23791e+00  9.19137e-03  5.25589e+01  4.34954e+02  2.53167e-02 -1.61158e+05  2.02616e+03  0.00000e+00 -1.59132e+05  7.43289e+05  5.84157e+05  9.18767e-03  1.00000e+00 -5.26625e+01  0.00000e+00  3.42413e-01 
 4.75174e-03  1.32727e-03  1.05001e-20  3.47944e+00  8.82606e-05  3.58732e+02  3.60050e+02  4.22242e+00  4.23602e+00  1.06283e-02  5.26523e+01  3.94898e+02  1.01424e+00 -1.60325e+05  1.83903e+03  0.00000e+00 -1.58485e+05  5.84630e+05  4.26145e+05  1.06243e-02  1.00000e+00 -5.27580e+01  0.00000e+00  3.58866e-01 
 4.82366e-03  1.56534e-03  0.00000e+00  3.47944e+00  9.60810e-05  3.58761e+02  3.60050e+02  4.21819e+00  4.23336e+00  1.23957e-02  5.38099e+01  3.62756e+02  1.63783e+01 -1.64505e+05  1.68873e+03  0.00000e+00 -1.62800e+05  4.70600e+05  3.07800e+05  1.23912e-02  1.00000e+00 -5.39203e+01  0.00000e+00  3.79144e-01 
 4.90611e-03  1.80349e-03  8.81027e-21  3.47944e+00  1.03689e-04  3.58795e+02  3.60050e+02  4.21320e+00  4.22990e+00  1.45431e-02  5.57546e+01  3.36138e+02  1.43051e+02 -1.72729e+05  1.56408e+03  0.00000e+00 -1.71022e+05  3.85122e+05  2.14100e+05  1.45379e-02  1.00000e+00 -5.58720e+01  0.00000e+00  4.03677e-01 
 4.99859e-03  2.04170e-03  0.00000e+00  3.47944e+00  1.11099e-04  3.58834e+02  3.60050e+02  4.20744e+00  4.22561e+00  1.71208e-02  5.83420e+01  3.13720e+02  7.96589e+02 -1.84622e+05  1.45894e+03  0.00000e+00 -1.82366e+05  3.19515e+05  1.37149e+05  1.71141e-02  1.00000e+00 -5.84687e+01  0.00000e+00  4.32936e-01 
 5.10055e-03  2.27996e-03  7.58893e-21  3.47944e+00  1.18254e-04  3.58876e+02  3.60050e+02  4.20088e+00  4.22045e+00  2.01910e-02  6.15129e+01  2.94737e+02  3.13854e+03 -2.00343e+05  1.36961e+03  0.00000e+00 -1.95835e+05  2.68376e+05  7.25415e+04  2.01839e-02  1.00000e+00 -6.16514e+01  0.00000e+00  4.67481e-01 
 5.21143e-03  2.51826e-03  7.09702e-21  3.47944e+00  1.25047e-04  3.58923e+02  3.60050e+02  4.19347e+00  4.21433e+00  2.38209e-02  6.52817e+01  2.78726e+02  9.41000e+03 -2.20365e+05  1.29396e+03  0.00000e+00 -2.09661e+05  2.28311e+05  1.86498e+04  2.38133e-02  1.00000e+00 -6.54346e+01  0.00000e+00  5.08066e-01 
 5.33068e-03  2.75659e-03  1.33300e-20  3.47944e+00  1.31340e-04  3.58973e+02  3.60050e+02  4.18516e+00  4.20716e+00  2.80875e-02  6.96636e+01  2.65372e+02  2.26805e+04 -2.45501e+05  1.23038e+03  0.00000e+00 -2.21590e+05  1.96744e+05 -2.48462e+04  2.80785e-02  1.00000e+00 -6.98343e+01  0.00000e+00  5.55513e-01 
 5.45775e-03  2.99495e-03  1.25651e-20  3.47944e+00  1.37000e-04  3.59026e+02  3.60050e+02  4.17590e+00  4.19885e+00  3.30685e-02  7.47112e+01  2.54408e+02  4.60005e+04 -2.76818e+05  1.17794e+03  0.00000e+00 -2.29639e+05  1.71825e+05 -5.78149e+04  3.30592e-02  1.00000e+00 -7.49036e+01  0.00000e+00  6.10780e-01 
 5.59212e-03  3.23333e-03  0.00000e+00  3.47944e+00  1.41952e-04  3.59082e+02  3.60050e+02  4.16559e+00  4.18933e+00  3.88595e-02  8.04319e+01  2.45534e+02  8.16451e+04 -3.15646e+05  1.13496e+03  0.00000e+00 -2.32866e+05  1.51936e+05 -8.09296e+04  3.88502e-02  1.00000e+00 -8.06508e+01  0.00000e+00  6.75130e-01 
 5.73326e-03  3.47172e-03  0.00000e+00  3.47944e+00  1.46192e-04  3.59141e+02  3.60050e+02  4.15417e+00  4.17850e+00  4.55401e-02  8.67716e+01  2.38412e+02  1.30869e+05 -3.63207e+05  1.09995e+03  0.00000e+00 -2.31238e+05  1.35835e+05 -9.54028e+04  4.55279e-02  1.00000e+00 -8.70225e+01  0.00000e+00  7.49996e-01 
 5.88069e-03  3.71014e-03 -5.35987e-21  3.47944e+00  1.49793e-04  3.59200e+02  3.60050e+02  4.14153e+00  4.16631e+00  5.31982e-02  9.35996e+01  2.32682e+02  1.94275e+05 -4.20819e+05  1.07109e+03  0.00000e+00 -2.25473e+05  1.22445e+05 -1.03027e+05  5.31815e-02  1.00000e+00 -9.38889e+01  0.00000e+00  8.36921e-01 
 6.03395e-03  3.94857e-03  5.10973e-21  3.47944e+00  1.52875e-04  3.59261e+02  3.60050e+02  4.12755e+00  4.15266e+00  6.19088e-02  1.00746e+02  2.27990e+02  2.72335e+05 -4.89689e+05  1.04694e+03  0.00000e+00 -2.16307e+05  1.10991e+05 -1.05316e+05  6.18894e-02  1.00000e+00 -1.01080e+02  0.00000e+00  9.37932e-01 
 6.19261e-03  4.18701e-03  0.00000e+00  3.47944e+00  1.55591e-04  3.59321e+02  3.60050e+02  4.11209e+00  4.13744e+00  7.17474e-02  1.06624e+02  2.24011e+02  3.65391e+05 -5.70845e+05  1.02580e+03  0.00000e+00 -2.04429e+05  9.96154e+04 -1.04813e+05  7.17259e-02  1.00000e+00 -1.07007e+02  0.00000e+00  1.05544e+00 
 6.35626e-03  4.42546e-03  0.00000e+00  3.47944e+00  1.58075e-04  3.59382e+02  3.60050e+02  4.09493e+00  4.12049e+00  8.27513e-02  1.11803e+02  2.20491e+02  4.73480e+05 -6.64992e+05  1.00654e+03  0.00000e+00 -1.90506e+05  8.91690e+04 -1.01337e+05  8.27261e-02  1.00000e+00 -1.12239e+02  0.00000e+00  1.19228e+00 
 6.52453e-03  4.66392e-03 -8.96437e-21  3.47944e+00  1.60457e-04  3.59441e+02  3.60050e+02  4.07590e+00  4.10155e+00  9.49229e-02  1.15971e+02  2.17218e+02  5.96107e+05 -7.72339e+05  9.88054e+02  0.00000e+00 -1.75244e+05  7.94658e+04 -9.57784e+04  9.48942e-02  1.00000e+00 -1.16467e+02  0.00000e+00  1.35157e+00 
 6.69707e-03  4.90238e-03  1.72236e-20  3.47944e+00  1.62869e-04  3.59499e+02  3.60050e+02  4.05469e+00  4.08037e+00  1.08275e-01  1.18825e+02  2.14001e+02  7.32275e+05 -8.92776e+05  9.69416e+02  0.00000e+00 -1.59533e+05  7.03531e+04 -8.91794e+04  1.08243e-01  1.00000e+00 -1.19385e+02  0.00000e+00  1.53712e+00 
 6.87356e-03  5.14086e-03  8.28595e-21  3.47944e+00  1.65430e-04  3.59555e+02  3.60050e+02  4.03102e+00  4.05667e+00  1.22751e-01  1.20039e+02  2.10689e+02  8.80530e+05 -1.02529e+06  9.49697e+02  0.00000e+00 -1.43812e+05  6.17514e+04 -8.20605e+04  1.22716e-01  1.00000e+00 -1.20667e+02  0.00000e+00  1.75392e+00 
 7.05370e-03  5.37934e-03 -1.59677e-20  3.47944e+00  1.68237e-04  3.59608e+02  3.60050e+02  4.00452e+00  4.03014e+00  1.38196e-01  1.19344e+02  2.07174e+02  1.03739e+06 -1.16726e+06  9.28731e+02  0.00000e+00 -1.28937e+05  5.36543e+04 -7.52828e+04  1.38159e-01  1.00000e+00 -1.20041e+02  0.00000e+00  2.00584e+00 
 7.23722e-03  5.61783e-03  0.00000e+00  3.47944e+00  1.71359e-04  3.59658e+02  3.60050e+02  3.97482e+00  4.00041e+00  1.54431e-01  1.16596e+02  2.03399e+02  1.19961e+06 -1.31584e+06  9.05786e+02  0.00000e+00 -1.15319e+05  4.60849e+04 -6.92343e+04  1.54396e-01  1.00000e+00 -1.17361e+02  0.00000e+00  2.29887e+00 
 7.42387e-03  5.85632e-03  0.00000e+00  3.47944e+00  1.74828e-04  3.59706e+02  3.60050e+02  3.94152e+00  3.96708e+00  1.71200e-01  1.11835e+02  1.99364e+02  1.36300e+06 -1.46719e+06  8.81298e+02  0.00000e+00 -1.03308e+05  3.91152e+04 -6.41925e+04  1.71166e-01  1.00000e+00 -1.12668e+02  0.00000e+00  2.63855e+00 
 7.61342e-03  6.09482e-03  0.00000e+00  3.47944e+00  1.78630e-04  3.59750e+02  3.60050e+02  3.90424e+00  3.92977e+00  1.88332e-01  1.05260e+02  1.95121e+02  1.52398e+06 -1.61879e+06  8.55137e+02  0.00000e+00 -9.39529e+04  3.27878e+04 -6.11651e+04  1.88299e-01  1.00000e+00 -1.06155e+02  0.00000e+00  3.03221e+00 
 7.80566e-03  6.33332e-03  0.00000e+00  3.47944e+00  1.82692e-04  3.59791e+02  3.60050e+02  3.86264e+00  3.88814e+00  2.05519e-01  9.71722e+01  1.90784e+02  1.67968e+06 -1.76774e+06  8.28039e+02  0.00000e+00 -8.72338e+04  2.71552e+04 -6.00787e+04  2.05486e-01  1.00000e+00 -9.81256e+01  0.00000e+00  3.48730e+00 
 8.00039e-03  6.57182e-03  0.00000e+00  3.47944e+00  1.86870e-04  3.59830e+02  3.60050e+02  3.81646e+00  3.84190e+00  2.22558e-01  8.79520e+01  1.86519e+02  1.82949e+06 -1.91393e+06  8.00347e+02  0.00000e+00 -8.36360e+04  2.22248e+04 -6.14112e+04  2.22524e-01  1.00000e+00 -8.89587e+01  0.00000e+00  4.01491e+00 
 8.19744e-03  6.81033e-03  1.31016e-20  3.47944e+00  1.90975e-04  3.59865e+02  3.60050e+02  3.76535e+00  3.79072e+00  2.39203e-01  7.79755e+01  1.82510e+02  1.97397e+06 -2.05809e+06  7.73242e+02  0.00000e+00 -8.33423e+04  1.79755e+04 -6.53668e+04  2.39170e-01  1.00000e+00 -7.90312e+01  0.00000e+00  4.62618e+00 
 8.39664e-03  7.04884e-03  0.00000e+00  3.47944e+00  1.94723e-04  3.59898e+02  3.60051e+02  3.70910e+00  3.73431e+00  2.55294e-01  6.75827e+01  1.78998e+02  2.11836e+06 -2.20527e+06  7.47288e+02  0.00000e+00 -8.61553e+04  1.43557e+04 -7.17995e+04  2.55259e-01  1.00000e+00 -6.86850e+01  0.00000e+00  5.34327e+00 
 8.59784e-03  7.28736e-03  0.00000e+00  3.47944e+00  1.97840e-04  3.59928e+02  3.60051e+02  3.64703e+00  3.67201e+00  2.70773e-01  5.69945e+01  1.76178e+02  2.26819e+06 -2.36206e+06  7.23589e+02  0.00000e+00 -9.31424e+04  1.12772e+04 -8.18653e+04  2.70736e-01  1.00000e+00 -5.81434e+01  0.00000e+00  6.19095e+00 
 8.80092e-03  7.52587e-03  0.00000e+00  3.47944e+00  1.99935e-04  3.59956e+02  3.60051e+02  3.57874e+00  3.60333e+00  2.85585e-01  4.62865e+01  1.74333e+02  2.43592e+06 -2.54093e+06  7.02555e+02  0.00000e+00 -1.04312e+05  8.64081e+03 -9.56715e+04  2.85546e-01  1.00000e+00 -4.74858e+01  0.00000e+00  7.21945e+00 
 9.00573e-03  7.76439e-03 -1.17014e-20  3.47944e+00  2.00681e-04  3.59983e+02  3.60051e+02  3.50215e+00  3.52618e+00  2.99760e-01  3.53024e+01  1.73686e+02  2.63361e+06 -2.75602e+06  6.85144e+02  0.00000e+00 -1.21719e+05  6.31444e+03 -1.15405e+05  2.99722e-01  1.00000e+00 -3.65598e+01  0.00000e+00  8.48751e+00 
 9.21216e-03  8.00291e-03  0.00000e+00  3.47944e+00  1.99600e-04  3.60010e+02  3.60051e+02  3.41730e+00  3.44051e+00  3.13451e-01  2.36542e+01  1.74627e+02  2.88698e+06 -3.03521e+06  6.71660e+02  0.00000e+00 -1.47560e+05  4.14901e+03 -1.43411e+05  3.13412e-01  1.00000e+00 -2.49844e+01  0.00000e+00  1.01246e+01 
 9.42012e-03  8.24144e-03  0.00000e+00  3.47944e+00  1.96296e-04  3.60037e+02  3.60052e+02  3.31729e+00  3.33945e+00  3.26733e-01  1.04225e+01  1.77568e+02  3.22644e+06 -3.41391e+06  6.62630e+02  0.00000e+00 -1.86800e+05  1.91921e+03 -1.84880e+05  3.26695e-01  1.00000e+00 -1.18473e+01  0.00000e+00  1.23047e+01 
 9.62949e-03  8.47996e-03  0.00000e+00  3.47944e+00  1.90114e-04  3.60066e+02  3.60052e+02  3.20554e+00  3.22622e+00  3.39870e-01 -1.33762e+01  1.83343e+02  3.72396e+06 -3.96956e+06  6.58819e+02  0.00000e+00 -2.44945e+05 -1.63801e+03 -2.46583e+05  3.39823e-01  1.00000e+00  1.01863e+01  0.00000e+00  1.54567e+01 
 9.84019e-03  8.71849e-03  0.00000e+00  3.47944e+00  1.80497e-04  3.60100e+02  3.60053e+02  3.05653e+00  3.07518e+00  3.52848e-01 -6.69473e+01  1.93113e+02  4.48218e+06 -4.82376e+06  6.62584e+02  0.00000e+00 -3.40912e+05 -1.03455e+04 -3.51258e+05  3.52805e-01  1.00000e+00  6.34127e+01  0.00000e+00  2.02146e+01 
 1.00521e-02  8.95702e-03  0.00000e+00  3.47944e+00  1.66050e-04  3.60152e+02  3.60053e+02  2.88544e+00  2.90253e+00  3.65749e-01 -1.71683e+02  2.09917e+02  5.84517e+06 -6.32921e+06  6.74183e+02  0.00000e+00 -4.83361e+05 -2.86778e+04 -5.12039e+05  3.65712e-01  1.00000e+00  1.67618e+02  0.00000e+00  2.88127e+01 
 1.02653e-02  9.19555e-03  0.00000e+00  3.47944e+00  1.46088e-04  3.60261e+02  3.60054e+02  2.62024e+00  2.63499e+00  3.79182e-01 -4.65483e+02  2.38603e+02  8.68369e+06 -9.33240e+06  6.88816e+02  0.00000e+00 -6.48028e+05 -8.63951e+04 -7.34424e+05  3.79169e-01  1.00000e+00  4.60567e+02  0.00000e+00  4.79902e+01 
 1.04795e-02  9.43408e-03  0.00000e+00  3.47944e+00  1.21156e-04  3.60652e+02  3.60054e+02  2.19220e+00  2.20151e+00  3.96651e-01 -5.03864e+03  2.87709e+02  1.68048e+07 -1.65105e+07  7.21960e+02  2.21849e+06  2.51344e+06 -2.61307e+06 -9.96250e+04  3.96664e-01  1.00000e+00  5.03229e+03  3.15478e+03  1.21426e+02 
