# Code_Saturne plot output (1D profile)
#
# Iteration output: 3084
# Time output:      2.30035e+01
#
#COLUMN_TITLES: Distance | X | Y | Z | diameter_Field2 | temp_Field1 | temp_Field2 | Velocity_Field1[Z] | Velocity_Field2[Z] | vol_f_Field2 | mass_trans_Field1 | Xd_Field2 | BK | COAL | COMP | NUCL | W1 | MT | SMBR | ALPBB | CONDNUM | GAMA | GAMANUC | epsilon_Field1
 4.56474e-03  1.39645e-04  0.00000e+00  3.47944e+00  6.54750e-05  3.59949e+02  3.60054e+02  4.94778e+00  4.95877e+00  9.18370e-02  6.24940e+01  5.32186e+02  3.35847e-04 -1.59559e+06  3.53604e+03  0.00000e+00 -1.59206e+06  1.76540e+05 -1.41552e+06  9.18353e-02  1.00000e+00 -6.24796e+01  0.00000e+00  4.30486e-01 
 4.57812e-03  3.76525e-04  4.25872e-21  3.47944e+00  9.38559e-05  3.59949e+02  3.60053e+02  4.94743e+00  4.96538e+00  9.28305e-02  3.85658e+01  3.71259e+02  3.49679e+01 -8.75012e+05  2.46893e+03  0.00000e+00 -8.72508e+05  7.51858e+04 -7.97322e+05  9.28282e-02  1.00000e+00 -3.85563e+01  0.00000e+00  4.36618e-01 
 4.60371e-03  6.13858e-04  0.00000e+00  3.47944e+00  1.18192e-04  3.59949e+02  3.60053e+02  4.94618e+00  4.97016e+00  9.47775e-02  2.87617e+01  2.94815e+02  2.27488e+03 -6.06508e+05  1.96242e+03  0.00000e+00 -6.02270e+05  4.36109e+04 -5.58660e+05  9.47754e-02  1.00000e+00 -2.87543e+01  0.00000e+00  4.48541e-01 
 4.64138e-03  8.51483e-04  0.00000e+00  3.47944e+00  1.38298e-04  3.59951e+02  3.60053e+02  4.94431e+00  4.97321e+00  9.76176e-02  2.38083e+01  2.51954e+02  1.57456e+04 -4.82623e+05  1.67824e+03  0.00000e+00 -4.65199e+05  2.99537e+04 -4.35246e+05  9.76153e-02  1.00000e+00 -2.38019e+01  0.00000e+00  4.66502e-01 
 4.69084e-03  1.08931e-03  0.00000e+00  3.47944e+00  1.54564e-04  3.59953e+02  3.60053e+02  4.94175e+00  4.97453e+00  1.01398e-01  2.10078e+01  2.25440e+02  4.53400e+04 -4.20510e+05  1.50221e+03  0.00000e+00 -3.73667e+05  2.27668e+04 -3.50900e+05  1.01396e-01  1.00000e+00 -2.10020e+01  0.00000e+00  4.90877e-01 
 4.75174e-03  1.32727e-03  1.05001e-20  3.47944e+00  1.66955e-04  3.59956e+02  3.60053e+02  4.93848e+00  4.97410e+00  1.06144e-01  1.94031e+01  2.08708e+02  8.58425e+04 -3.92819e+05  1.39085e+03  0.00000e+00 -3.05585e+05  1.85964e+04 -2.86989e+05  1.06142e-01  1.00000e+00 -1.93976e+01  0.00000e+00  5.22250e-01 
 4.82366e-03  1.56534e-03  0.00000e+00  3.47944e+00  1.75729e-04  3.59961e+02  3.60053e+02  4.93446e+00  4.97194e+00  1.11888e-01  1.85209e+01  1.98287e+02  1.30935e+05 -3.87574e+05  1.32115e+03  0.00000e+00 -2.55318e+05  1.59985e+04 -2.39319e+05  1.11885e-01  1.00000e+00 -1.85155e+01  0.00000e+00  5.61403e-01 
 4.90611e-03  1.80349e-03  8.81027e-21  3.47944e+00  1.81484e-04  3.59966e+02  3.60053e+02  4.92961e+00  4.96815e+00  1.18655e-01  1.80727e+01  1.91999e+02  1.78119e+05 -3.98685e+05  1.27863e+03  0.00000e+00 -2.19288e+05  1.42539e+04 -2.05034e+05  1.18653e-01  1.00000e+00 -1.80672e+01  0.00000e+00  6.09340e-01 
 4.99859e-03  2.04170e-03  0.00000e+00  3.47944e+00  1.84933e-04  3.59972e+02  3.60053e+02  4.92384e+00  4.96281e+00  1.26464e-01  1.78644e+01  1.88418e+02  2.27809e+05 -4.22962e+05  1.25384e+03  0.00000e+00 -1.93899e+05  1.29728e+04 -1.80927e+05  1.26461e-01  1.00000e+00 -1.78586e+01  0.00000e+00  6.67300e-01 
 5.10055e-03  2.27996e-03  7.58893e-21  3.47944e+00  1.86723e-04  3.59978e+02  3.60053e+02  4.91705e+00  4.95599e+00  1.35318e-01  1.77569e+01  1.86612e+02  2.81570e+05 -4.58826e+05  1.24054e+03  0.00000e+00 -1.76016e+05  1.19352e+04 -1.64080e+05  1.35314e-01  1.00000e+00 -1.77508e+01  0.00000e+00  7.36772e-01 
 5.21143e-03  2.51826e-03  7.09702e-21  3.47944e+00  1.87369e-04  3.59985e+02  3.60053e+02  4.90909e+00  4.94767e+00  1.45200e-01  1.76455e+01  1.85969e+02  3.41157e+05 -5.05621e+05  1.23467e+03  0.00000e+00 -1.63229e+05  1.10147e+04 -1.52214e+05  1.45197e-01  1.00000e+00 -1.76390e+01  0.00000e+00  8.19510e-01 
 5.33068e-03  2.75659e-03  1.33300e-20  3.47944e+00  1.87253e-04  3.59993e+02  3.60053e+02  4.89981e+00  4.93780e+00  1.56076e-01  1.74483e+01  1.86084e+02  4.08140e+05 -5.63203e+05  1.23349e+03  0.00000e+00 -1.53829e+05  1.01386e+04 -1.43691e+05  1.56072e-01  1.00000e+00 -1.74412e+01  0.00000e+00  9.17541e-01 
 5.45775e-03  2.99495e-03  1.25651e-20  3.47944e+00  1.86650e-04  3.60001e+02  3.60053e+02  4.88902e+00  4.92627e+00  1.67880e-01  1.71004e+01  1.86685e+02  4.83786e+05 -6.31659e+05  1.23513e+03  0.00000e+00 -1.46638e+05  9.26719e+03 -1.37371e+05  1.67876e-01  1.00000e+00 -1.70927e+01  0.00000e+00  1.03317e+00 
 5.59212e-03  3.23333e-03  0.00000e+00  3.47944e+00  1.85762e-04  3.60008e+02  3.60053e+02  4.87651e+00  4.91293e+00  1.80526e-01  1.65528e+01  1.87577e+02  5.69004e+05 -7.11119e+05  1.23827e+03  0.00000e+00 -1.40877e+05  8.38150e+03 -1.32496e+05  1.80521e-01  1.00000e+00 -1.65445e+01  0.00000e+00  1.16898e+00 
 5.73326e-03  3.47172e-03  0.00000e+00  3.47944e+00  1.84734e-04  3.60016e+02  3.60053e+02  4.86207e+00  4.89757e+00  1.93898e-01  1.57724e+01  1.88621e+02  6.64325e+05 -8.01590e+05  1.24189e+03  0.00000e+00 -1.36023e+05  7.47645e+03 -1.28547e+05  1.93893e-01  1.00000e+00 -1.57635e+01  0.00000e+00  1.32780e+00 
 5.88069e-03  3.71014e-03 -5.35987e-21  3.47944e+00  1.83675e-04  3.60024e+02  3.60053e+02  4.84545e+00  4.88000e+00  2.07863e-01  1.47435e+01  1.89710e+02  7.69864e+05 -9.02868e+05  1.24519e+03  0.00000e+00 -1.31759e+05  6.55623e+03 -1.25202e+05  2.07859e-01  1.00000e+00 -1.47339e+01  0.00000e+00  1.51269e+00 
 6.03395e-03  3.94857e-03  5.10973e-21  3.47944e+00  1.82662e-04  3.60031e+02  3.60053e+02  4.82637e+00  4.85996e+00  2.22268e-01  1.34684e+01  1.90761e+02  8.85315e+05 -1.01444e+06  1.24764e+03  0.00000e+00 -1.27876e+05  5.63145e+03 -1.22245e+05  2.22264e-01  1.00000e+00 -1.34581e+01  0.00000e+00  1.72685e+00 
 6.19261e-03  4.18701e-03  0.00000e+00  3.47944e+00  1.81754e-04  3.60037e+02  3.60053e+02  4.80462e+00  4.83723e+00  2.36953e-01  1.19676e+01  1.91715e+02  1.00996e+06 -1.13548e+06  1.24872e+03  0.00000e+00 -1.24271e+05  4.71655e+03 -1.19555e+05  2.36949e-01  1.00000e+00 -1.19566e+01  0.00000e+00  1.97360e+00 
 6.35626e-03  4.42546e-03  0.00000e+00  3.47944e+00  1.80983e-04  3.60044e+02  3.60053e+02  4.77998e+00  4.81162e+00  2.51754e-01  1.02780e+01  1.92531e+02  1.14277e+06 -1.26489e+06  1.24812e+03  0.00000e+00 -1.20870e+05  3.82792e+03 -1.17042e+05  2.51750e-01  1.00000e+00 -1.02663e+01  0.00000e+00  2.25638e+00 
 6.52453e-03  4.66392e-03 -8.96437e-21  3.47944e+00  1.80368e-04  3.60049e+02  3.60053e+02  4.75224e+00  4.78293e+00  2.66518e-01  8.44969e+00  1.93188e+02  1.28251e+06 -1.40142e+06  1.24562e+03  0.00000e+00 -1.17666e+05  2.98185e+03 -1.14684e+05  2.66514e-01  1.00000e+00 -8.43739e+00  0.00000e+00  2.57874e+00 
 6.69707e-03  4.90238e-03  1.72236e-20  3.47944e+00  1.79907e-04  3.60054e+02  3.60053e+02  4.72123e+00  4.75099e+00  2.81106e-01  6.54167e+00  1.93684e+02  1.42788e+06 -1.54381e+06  1.24119e+03  0.00000e+00 -1.14689e+05  2.19319e+03 -1.12496e+05  2.81104e-01  1.00000e+00 -6.52877e+00  0.00000e+00  2.94434e+00 
 6.87356e-03  5.14086e-03  8.28595e-21  3.47944e+00  1.79581e-04  3.60059e+02  3.60053e+02  4.68682e+00  4.71566e+00  2.95393e-01  4.61690e+00  1.94036e+02  1.57771e+06 -1.69089e+06  1.23492e+03  0.00000e+00 -1.11942e+05  1.47430e+03 -1.10467e+05  2.95391e-01  1.00000e+00 -4.60344e+00  0.00000e+00  3.35718e+00 
 7.05370e-03  5.37934e-03 -1.59677e-20  3.47944e+00  1.79359e-04  3.60063e+02  3.60053e+02  4.64888e+00  4.67683e+00  3.09294e-01  2.73854e+00  1.94277e+02  1.73114e+06 -1.84195e+06  1.22700e+03  0.00000e+00 -1.09582e+05  8.34389e+02 -1.08748e+05  3.09292e-01  1.00000e+00 -2.72456e+00  0.00000e+00  3.82176e+00 
 7.23722e-03  5.61783e-03  0.00000e+00  3.47944e+00  1.79190e-04  3.60066e+02  3.60053e+02  4.60733e+00  4.63440e+00  3.22714e-01  9.66758e-01  1.94461e+02  1.88794e+06 -1.99668e+06  1.21774e+03  0.00000e+00 -1.07526e+05  2.79775e+02 -1.07246e+05  3.22713e-01  1.00000e+00 -9.52298e-01  0.00000e+00  4.34365e+00 
 7.42387e-03  5.85632e-03  0.00000e+00  3.47944e+00  1.79024e-04  3.60069e+02  3.60054e+02  4.56208e+00  4.58829e+00  3.35644e-01 -1.46002e+00  1.94641e+02  2.04826e+06 -2.15560e+06  1.20745e+03  0.00000e+00 -1.06136e+05 -4.19664e+02 -1.06556e+05  3.35644e-01  1.00000e+00  1.48431e+00  0.00000e+00  4.92972e+00 
 7.61342e-03  6.09482e-03  0.00000e+00  3.47944e+00  1.78787e-04  3.60071e+02  3.60054e+02  4.51299e+00  4.53833e+00  3.48012e-01 -4.51686e+00  1.94900e+02  2.21357e+06 -2.31990e+06  1.19658e+03  0.00000e+00 -1.05129e+05 -1.24006e+03 -1.06369e+05  3.48011e-01  1.00000e+00  4.54155e+00  0.00000e+00  5.58958e+00 
 7.80566e-03  6.33332e-03  0.00000e+00  3.47944e+00  1.78405e-04  3.60073e+02  3.60054e+02  4.45987e+00  4.48435e+00  3.59857e-01 -7.19475e+00  1.95318e+02  2.38570e+06 -2.49204e+06  1.18555e+03  0.00000e+00 -1.05156e+05 -1.91055e+03 -1.07066e+05  3.59857e-01  1.00000e+00  7.21981e+00  0.00000e+00  6.33523e+00 
 8.00039e-03  6.57182e-03  0.00000e+00  3.47944e+00  1.77778e-04  3.60074e+02  3.60054e+02  4.40248e+00  4.42608e+00  3.71160e-01 -9.54756e+00  1.96008e+02  2.56846e+06 -2.67583e+06  1.17491e+03  0.00000e+00 -1.06200e+05 -2.46478e+03 -1.08665e+05  3.71160e-01  1.00000e+00  9.57295e+00  0.00000e+00  7.18479e+00 
 8.19744e-03  6.81033e-03  1.31016e-20  3.47944e+00  1.76815e-04  3.60075e+02  3.60054e+02  4.34033e+00  4.36301e+00  3.81986e-01 -1.16601e+01  1.97077e+02  2.76612e+06 -2.87650e+06  1.16489e+03  0.00000e+00 -1.09214e+05 -2.93948e+03 -1.12154e+05  3.81987e-01  1.00000e+00  1.16859e+01  0.00000e+00  8.16069e+00 
 8.39664e-03  7.04884e-03  0.00000e+00  3.47944e+00  1.75411e-04  3.60076e+02  3.60055e+02  4.27310e+00  4.29481e+00  3.92337e-01 -1.36503e+01  1.98655e+02  2.98616e+06 -3.10122e+06  1.15628e+03  0.00000e+00 -1.13896e+05 -3.37625e+03 -1.17272e+05  3.92337e-01  1.00000e+00  1.36764e+01  0.00000e+00  9.29924e+00 
 8.59784e-03  7.28736e-03  0.00000e+00  3.47944e+00  1.73462e-04  3.60076e+02  3.60055e+02  4.19935e+00  4.22003e+00  4.02320e-01 -1.56960e+01  2.00889e+02  3.23643e+06 -3.35976e+06  1.14938e+03  0.00000e+00 -1.22182e+05 -3.82759e+03 -1.26010e+05  4.02320e-01  1.00000e+00  1.57224e+01  0.00000e+00  1.06436e+01 
 8.80092e-03  7.52587e-03  0.00000e+00  3.47944e+00  1.70803e-04  3.60077e+02  3.60055e+02  4.11958e+00  4.13914e+00  4.11949e-01 -1.80655e+01  2.04017e+02  3.53302e+06 -3.66827e+06  1.14486e+03  0.00000e+00 -1.34105e+05 -4.36858e+03 -1.38474e+05  4.11948e-01  1.00000e+00  1.80923e+01  0.00000e+00  1.22748e+01 
 9.00573e-03  7.76439e-03 -1.17014e-20  3.47944e+00  1.67319e-04  3.60078e+02  3.60055e+02  4.02892e+00  4.04726e+00  4.21362e-01 -2.12365e+01  2.08267e+02  3.89197e+06 -4.04656e+06  1.14313e+03  0.00000e+00 -1.53452e+05 -5.12422e+03 -1.58576e+05  4.21362e-01  1.00000e+00  2.12637e+01  0.00000e+00  1.42860e+01 
 9.21216e-03  8.00291e-03  0.00000e+00  3.47944e+00  1.62750e-04  3.60080e+02  3.60056e+02  3.93180e+00  3.94880e+00  4.30614e-01 -2.60621e+01  2.14115e+02  4.35211e+06 -4.53421e+06  1.14566e+03  0.00000e+00 -1.80949e+05 -6.32491e+03 -1.87274e+05  4.30613e-01  1.00000e+00  2.60898e+01  0.00000e+00  1.68876e+01 
 9.42012e-03  8.24144e-03  0.00000e+00  3.47944e+00  1.56924e-04  3.60083e+02  3.60056e+02  3.81274e+00  3.82825e+00  4.39855e-01 -3.44182e+01  2.22067e+02  4.95579e+06 -5.18273e+06  1.15230e+03  0.00000e+00 -2.25784e+05 -8.47894e+03 -2.34263e+05  4.39856e-01  1.00000e+00  3.44465e+01  0.00000e+00  2.03283e+01 
 9.62949e-03  8.47996e-03  0.00000e+00  3.47944e+00  1.49358e-04  3.60088e+02  3.60057e+02  3.68762e+00  3.70151e+00  4.49128e-01 -5.05769e+01  2.33317e+02  5.82396e+06 -6.11399e+06  1.16762e+03  0.00000e+00 -2.88857e+05 -1.28174e+04 -3.01674e+05  4.49128e-01  1.00000e+00  5.06059e+01  0.00000e+00  2.53044e+01 
 9.84019e-03  8.71849e-03  0.00000e+00  3.47944e+00  1.39758e-04  3.60098e+02  3.60057e+02  3.51297e+00  3.52503e+00  4.58552e-01 -8.65753e+01  2.49348e+02  7.12658e+06 -7.51869e+06  1.18835e+03  0.00000e+00 -3.90930e+05 -2.29604e+04 -4.13890e+05  4.58552e-01  1.00000e+00  8.66052e+01  0.00000e+00  3.28437e+01 
 1.00521e-02  8.95702e-03  0.00000e+00  3.47944e+00  1.27273e-04  3.60123e+02  3.60058e+02  3.32465e+00  3.33486e+00  4.68302e-01 -1.83310e+02  2.73811e+02  9.41871e+06 -9.93039e+06  1.22574e+03  0.00000e+00 -5.10459e+05 -5.22641e+04 -5.62723e+05  4.68299e-01  1.00000e+00  1.83341e+02  0.00000e+00  4.65734e+01 
 1.02653e-02  9.19555e-03  0.00000e+00  3.47944e+00  1.12159e-04  3.60197e+02  3.60059e+02  3.00389e+00  3.01164e+00  4.78636e-01 -5.29288e+02  3.10712e+02  1.39400e+07 -1.44009e+07  1.24927e+03  0.00000e+00 -4.59684e+05 -1.67526e+05 -6.27211e+05  4.78637e-01  1.00000e+00  5.29320e+02  0.00000e+00  7.65191e+01 
 1.04795e-02  9.43408e-03  0.00000e+00  3.47944e+00  9.78766e-05  3.60551e+02  3.60060e+02  2.53195e+00  2.53539e+00  4.92086e-01 -5.88978e+03  3.56059e+02  2.52948e+07 -2.25981e+07  1.24964e+03  9.35480e+05  3.63348e+06 -3.71279e+06 -7.93068e+04  4.92094e-01  1.00000e+00  5.88981e+03  3.38920e+03  1.90259e+02 
