# Code_Saturne plot output (1D profile)
#
# Iteration output: 3772
# Time output:      2.30005e+01
#
#COLUMN_TITLES: Distance | X | Y | Z | diameter_Field2 | temp_Field1 | temp_Field2 | Velocity_Field1[Z] | Velocity_Field2[Z] | vol_f_Field2 | mass_trans_Field1 | Xd_Field2 | BK | COAL | COMP | NUCL | W1 | MT | SMBR | ALPBB | CONDNUM | GAMA | GAMANUC | epsilon_Field1
 4.56474e-03  1.39645e-04  0.00000e+00  3.47944e+00  1.20280e-04  3.58844e+02  3.60049e+02  4.35578e+00  4.37839e+00  3.10315e-02  9.24392e+01  2.89771e+02  2.07857e+03 -4.73280e+05  1.49489e+03  0.00000e+00 -4.69707e+05  1.61209e+05 -3.08498e+05  3.10521e-02  1.00000e+00 -9.23373e+01  0.00000e+00  4.59541e-01 
 4.57812e-03  3.76525e-04  4.25872e-21  3.47944e+00  1.41679e-04  3.58847e+02  3.60049e+02  4.35524e+00  4.38273e+00  3.15566e-02  7.54347e+01  2.46005e+02  1.17633e+04 -3.64359e+05  1.26924e+03  0.00000e+00 -3.51327e+05  1.09833e+05 -2.41494e+05  3.15766e-02  1.00000e+00 -7.53513e+01  0.00000e+00  4.64563e-01 
 4.60371e-03  6.13858e-04  0.00000e+00  3.47944e+00  1.58465e-04  3.58853e+02  3.60049e+02  4.35361e+00  4.38480e+00  3.25131e-02  6.69189e+01  2.19944e+02  2.87861e+04 -3.11567e+05  1.13521e+03  0.00000e+00 -2.81645e+05  8.45535e+04 -1.97092e+05  3.25330e-02  1.00000e+00 -6.68445e+01  0.00000e+00  4.74476e-01 
 4.64138e-03  8.51483e-04  0.00000e+00  3.47944e+00  1.71212e-04  3.58863e+02  3.60049e+02  4.35119e+00  4.38507e+00  3.38953e-02  6.28852e+01  2.03569e+02  4.87578e+04 -2.86969e+05  1.05084e+03  0.00000e+00 -2.37160e+05  7.05456e+04 -1.66615e+05  3.39151e-02  1.00000e+00 -6.28147e+01  0.00000e+00  4.89415e-01 
 4.69084e-03  1.08931e-03  0.00000e+00  3.47944e+00  1.81411e-04  3.58875e+02  3.60049e+02  4.34793e+00  4.38386e+00  3.57281e-02  6.12650e+01  1.92125e+02  7.03213e+04 -2.77176e+05  9.91674e+02  0.00000e+00 -2.05863e+05  6.15389e+04 -1.44324e+05  3.57481e-02  1.00000e+00 -6.11957e+01  0.00000e+00  5.09681e-01 
 4.75174e-03  1.32727e-03  1.05001e-20  3.47944e+00  1.90010e-04  3.58892e+02  3.60049e+02  4.34384e+00  4.38139e+00  3.80478e-02  6.11536e+01  1.83430e+02  9.35564e+04 -2.76678e+05  9.46528e+02  0.00000e+00 -1.82175e+05  5.50725e+04 -1.27102e+05  3.80685e-02  1.00000e+00 -6.10834e+01  0.00000e+00  5.35684e-01 
 4.82366e-03  1.56534e-03  0.00000e+00  3.47944e+00  1.97642e-04  3.58911e+02  3.60049e+02  4.33891e+00  4.37781e+00  4.08848e-02  6.20693e+01  1.76347e+02  1.18888e+05 -2.82750e+05  9.09566e+02  0.00000e+00 -1.62953e+05  5.00106e+04 -1.12942e+05  4.09060e-02  1.00000e+00 -6.19969e+01  0.00000e+00  5.67866e-01 
 4.90611e-03  1.80349e-03  8.81027e-21  3.47944e+00  2.04767e-04  3.58933e+02  3.60049e+02  4.33308e+00  4.37318e+00  4.42872e-02  6.37328e+01  1.70211e+02  1.46741e+05 -2.93984e+05  8.77356e+02  0.00000e+00 -1.46366e+05  4.57565e+04 -1.00609e+05  4.43092e-02  1.00000e+00 -6.36570e+01  0.00000e+00  6.06888e-01 
 4.99859e-03  2.04170e-03  0.00000e+00  3.47944e+00  2.11751e-04  3.58959e+02  3.60049e+02  4.32634e+00  4.36755e+00  4.82932e-02  6.59338e+01  1.64597e+02  1.77286e+05 -3.09373e+05  8.47793e+02  0.00000e+00 -1.31239e+05  4.19782e+04 -8.92609e+04  4.83162e-02  1.00000e+00 -6.58536e+01  0.00000e+00  6.53421e-01 
 5.10055e-03  2.27996e-03  7.58893e-21  3.47944e+00  2.18907e-04  3.58987e+02  3.60049e+02  4.31860e+00  4.36094e+00  5.29590e-02  6.84970e+01  1.59216e+02  2.10446e+05 -3.28207e+05  8.19307e+02  0.00000e+00 -1.16942e+05  3.84676e+04 -7.84741e+04  5.29830e-02  1.00000e+00 -6.84116e+01  0.00000e+00  7.08398e-01 
 5.21143e-03  2.51826e-03  7.09702e-21  3.47944e+00  2.26529e-04  3.59017e+02  3.60049e+02  4.30981e+00  4.35333e+00  5.83352e-02  7.12704e+01  1.53859e+02  2.45740e+05 -3.49738e+05  7.90922e+02  0.00000e+00 -1.03207e+05  3.51135e+04 -6.80936e+04  5.83605e-02  1.00000e+00 -7.11790e+01  0.00000e+00  7.72816e-01 
 5.33068e-03  2.75659e-03  1.33300e-20  3.47944e+00  2.34902e-04  3.59049e+02  3.60049e+02  4.29985e+00  4.34469e+00  6.44642e-02  7.38521e+01  1.48375e+02  2.82324e+05 -3.73069e+05  7.61737e+02  0.00000e+00 -8.99827e+04  3.17515e+04 -5.82312e+04  6.44915e-02  1.00000e+00 -7.37543e+01  0.00000e+00  8.47894e-01 
 5.45775e-03  2.99495e-03  1.25651e-20  3.47944e+00  2.44307e-04  3.59084e+02  3.60049e+02  4.28864e+00  4.33499e+00  7.13784e-02  7.57423e+01  1.42663e+02  3.18939e+05 -3.97122e+05  7.31433e+02  0.00000e+00 -7.74514e+04  2.82766e+04 -4.91748e+04  7.14076e-02  1.00000e+00 -7.56385e+01  0.00000e+00  9.34979e-01 
 5.59212e-03  3.23333e-03  0.00000e+00  3.47944e+00  2.55004e-04  3.59120e+02  3.60049e+02  4.27604e+00  4.32415e+00  7.91118e-02  7.71379e+01  1.36679e+02  3.54011e+05 -4.20785e+05  6.99691e+02  0.00000e+00 -6.60736e+04  2.48922e+04 -4.11814e+04  7.91413e-02  1.00000e+00 -7.70283e+01  0.00000e+00  1.03550e+00 
 5.73326e-03  3.47172e-03  0.00000e+00  3.47944e+00  2.67231e-04  3.59157e+02  3.60049e+02  4.26188e+00  4.31204e+00  8.76733e-02  7.79032e+01  1.30425e+02  3.85942e+05 -4.42865e+05  6.66577e+02  0.00000e+00 -5.62564e+04  2.16460e+04 -3.46104e+04  8.77030e-02  1.00000e+00 -7.77881e+01  0.00000e+00  1.15134e+00 
 5.88069e-03  3.71014e-03 -5.35987e-21  3.47944e+00  2.81186e-04  3.59195e+02  3.60049e+02  4.24600e+00  4.29846e+00  9.70715e-02  7.79019e+01  1.23952e+02  4.13170e+05 -4.62243e+05  6.32209e+02  0.00000e+00 -4.84403e+04  1.85793e+04 -2.98610e+04  9.71002e-02  1.00000e+00 -7.77818e+01  0.00000e+00  1.28443e+00 
 6.03395e-03  3.94857e-03  5.10973e-21  3.47944e+00  2.96991e-04  3.59234e+02  3.60049e+02  4.22821e+00  4.28327e+00  1.07252e-01  7.70772e+01  1.17356e+02  4.34450e+05 -4.77823e+05  5.97201e+02  0.00000e+00 -4.27752e+04  1.57521e+04 -2.70231e+04  1.07278e-01  1.00000e+00 -7.69529e+01  0.00000e+00  1.43662e+00 
 6.19261e-03  4.18701e-03  0.00000e+00  3.47944e+00  3.14640e-04  3.59274e+02  3.60049e+02  4.20831e+00  4.26616e+00  1.18135e-01  7.54165e+01  1.10774e+02  4.49236e+05 -4.88977e+05  5.62073e+02  0.00000e+00 -3.91790e+04  1.32081e+04 -2.59708e+04  1.18156e-01  1.00000e+00 -7.52888e+01  0.00000e+00  1.61047e+00 
 6.35626e-03  4.42546e-03  0.00000e+00  3.47944e+00  3.33962e-04  3.59314e+02  3.60049e+02  4.18612e+00  4.24699e+00  1.29592e-01  7.30280e+01  1.04365e+02  4.57472e+05 -4.95456e+05  5.27864e+02  0.00000e+00 -3.74562e+04  1.09823e+04 -2.64739e+04  1.29629e-01  1.00000e+00 -7.28978e+01  0.00000e+00  1.80783e+00 
 6.52453e-03  4.66392e-03 -8.96437e-21  3.47944e+00  3.54593e-04  3.59354e+02  3.60049e+02  4.16146e+00  4.22543e+00  1.41533e-01  7.00340e+01  9.82928e+01  4.60000e+05 -4.97693e+05  4.95179e+02  0.00000e+00 -3.71985e+04  9.08177e+03 -2.81167e+04  1.41568e-01  1.00000e+00 -6.99020e+01  0.00000e+00  2.03139e+00 
 6.69707e-03  4.90238e-03  1.72236e-20  3.47944e+00  3.75942e-04  3.59395e+02  3.60049e+02  4.13434e+00  4.20123e+00  1.53779e-01  6.66375e+01  9.27110e+01  4.58194e+05 -4.96557e+05  4.64905e+02  0.00000e+00 -3.78973e+04  7.50067e+03 -3.03966e+04  1.53812e-01  1.00000e+00 -6.65044e+01  0.00000e+00  2.28361e+00 
 6.87356e-03  5.14086e-03  8.28595e-21  3.47944e+00  3.97210e-04  3.59436e+02  3.60049e+02  4.10504e+00  4.17300e+00  1.66138e-01  6.27186e+01  8.77472e+01  4.54082e+05 -4.93456e+05  4.37623e+02  0.00000e+00 -3.89360e+04  6.18392e+03 -3.27520e+04  1.66171e-01  1.00000e+00 -6.25851e+01  0.00000e+00  2.56911e+00 
 7.05370e-03  5.37934e-03 -1.59677e-20  3.47944e+00  4.17562e-04  3.59478e+02  3.60049e+02  4.07316e+00  4.14046e+00  1.78549e-01  5.87292e+01  8.34706e+01  4.49367e+05 -4.89982e+05  4.13647e+02  0.00000e+00 -4.02023e+04  5.12487e+03 -3.50774e+04  1.78582e-01  1.00000e+00 -5.85955e+01  0.00000e+00  2.89202e+00 
 7.23722e-03  5.61783e-03  0.00000e+00  3.47944e+00  4.36113e-04  3.59519e+02  3.60049e+02  4.03814e+00  4.10445e+00  1.90845e-01  5.49194e+01  7.99202e+01  4.45832e+05 -4.87548e+05  3.93103e+02  0.00000e+00 -4.13228e+04  4.29231e+03 -3.70305e+04  1.90879e-01  1.00000e+00 -5.47848e+01  0.00000e+00  3.25896e+00 
 7.42387e-03  5.85632e-03  0.00000e+00  3.47944e+00  4.52214e-04  3.59562e+02  3.60049e+02  3.99964e+00  4.06499e+00  2.03092e-01  5.13524e+01  7.70748e+01  4.44410e+05 -4.87543e+05  3.76029e+02  0.00000e+00 -4.27566e+04  3.63659e+03 -3.91200e+04  2.03127e-01  1.00000e+00 -5.12161e+01  0.00000e+00  3.67425e+00 
 7.61342e-03  6.09482e-03  0.00000e+00  3.47944e+00  4.65217e-04  3.59604e+02  3.60049e+02  3.95772e+00  4.02211e+00  2.15007e-01  4.79604e+01  7.49208e+01  4.46449e+05 -4.90764e+05  3.62090e+02  0.00000e+00 -4.39529e+04  3.11784e+03 -4.08350e+04  2.15042e-01  1.00000e+00 -4.78214e+01  0.00000e+00  4.14810e+00 
 7.80566e-03  6.33332e-03  0.00000e+00  3.47944e+00  4.74890e-04  3.59647e+02  3.60050e+02  3.91185e+00  3.97533e+00  2.26772e-01  4.47067e+01  7.33950e+01  4.52214e+05 -4.98311e+05  3.51115e+02  0.00000e+00 -4.57462e+04  2.69872e+03 -4.30475e+04  2.26807e-01  1.00000e+00 -4.45639e+01  0.00000e+00  4.68703e+00 
 8.00039e-03  6.57182e-03  0.00000e+00  3.47944e+00  4.80913e-04  3.59691e+02  3.60050e+02  3.86218e+00  3.92476e+00  2.38095e-01  4.14703e+01  7.24761e+01  4.62921e+05 -5.10836e+05  3.42671e+02  0.00000e+00 -4.75722e+04  2.35364e+03 -4.52185e+04  2.38130e-01  1.00000e+00 -4.13224e+01  0.00000e+00  5.30957e+00 
 8.19744e-03  6.81033e-03  1.31016e-20  3.47944e+00  4.83405e-04  3.59736e+02  3.60050e+02  3.80755e+00  3.86929e+00  2.49262e-01  3.81536e+01  7.21026e+01  4.78595e+05 -5.29468e+05  3.36591e+02  0.00000e+00 -5.05366e+04  2.05678e+03 -4.84798e+04  2.49298e-01  1.00000e+00 -3.79993e+01  0.00000e+00  6.02732e+00 
 8.39664e-03  7.04884e-03  0.00000e+00  3.47944e+00  4.82168e-04  3.59782e+02  3.60050e+02  3.74864e+00  3.80956e+00  2.59956e-01  3.46005e+01  7.22880e+01  5.01023e+05 -5.55317e+05  3.32520e+02  0.00000e+00 -5.39609e+04  1.79198e+03 -5.21689e+04  2.59992e-01  1.00000e+00 -3.44380e+01  0.00000e+00  6.87607e+00 
 8.59784e-03  7.28736e-03  0.00000e+00  3.47944e+00  4.77464e-04  3.59829e+02  3.60050e+02  3.68269e+00  3.74286e+00  2.70522e-01  3.06344e+01  7.30005e+01  5.30561e+05 -5.90164e+05  3.30387e+02  0.00000e+00 -5.92730e+04  1.53822e+03 -5.77348e+04  2.70560e-01  1.00000e+00 -3.04620e+01  0.00000e+00  7.87929e+00 
 8.80092e-03  7.52587e-03  0.00000e+00  3.47944e+00  4.68995e-04  3.59878e+02  3.60051e+02  3.61216e+00  3.67158e+00  2.80727e-01  2.60202e+01  7.43191e+01  5.70479e+05 -6.36906e+05  3.30107e+02  0.00000e+00 -6.60975e+04  1.27990e+03 -6.48176e+04  2.80766e-01  1.00000e+00 -2.58355e+01  0.00000e+00  9.11112e+00 
 9.00573e-03  7.76439e-03 -1.17014e-20  3.47944e+00  4.56968e-04  3.59931e+02  3.60051e+02  3.52938e+00  3.58815e+00  2.90895e-01  2.03805e+01  7.62756e+01  6.22626e+05 -6.99430e+05  3.31455e+02  0.00000e+00 -7.64729e+04  9.90214e+02 -7.54827e+04  2.90938e-01  1.00000e+00 -2.01806e+01  0.00000e+00  1.06297e+01 
 9.21216e-03  8.00291e-03  0.00000e+00  3.47944e+00  4.40753e-04  3.59986e+02  3.60051e+02  3.44334e+00  3.50142e+00  3.00798e-01  1.31691e+01  7.90821e+01  6.94700e+05 -7.85306e+05  3.34868e+02  0.00000e+00 -9.02711e+04  6.37113e+02 -8.96340e+04  3.00844e-01  1.00000e+00 -1.29498e+01  0.00000e+00  1.26231e+01 
 9.42012e-03  8.24144e-03  0.00000e+00  3.47944e+00  4.20416e-04  3.60048e+02  3.60051e+02  3.33234e+00  3.38978e+00  3.10920e-01  3.34947e+00  8.29082e+01  7.92764e+05 -9.06025e+05  3.40268e+02  0.00000e+00 -1.12921e+05  1.54948e+02 -1.12766e+05  3.10973e-01  1.00000e+00 -3.10520e+00  0.00000e+00  1.52434e+01 
 9.62949e-03  8.47996e-03  0.00000e+00  3.47944e+00  3.94702e-04  3.60118e+02  3.60052e+02  3.22116e+00  3.27622e+00  3.21043e-01 -2.50065e+01  8.83103e+01  9.40140e+05 -1.08533e+06  3.49332e+02  0.00000e+00 -1.44845e+05 -1.31900e+03 -1.46164e+05  3.21102e-01  1.00000e+00  2.56248e+01  0.00000e+00  1.91159e+01 
 9.84019e-03  8.71849e-03  0.00000e+00  3.47944e+00  3.63196e-04  3.60205e+02  3.60052e+02  3.05575e+00  3.10515e+00  3.31538e-01 -7.77741e+01  9.59718e+01  1.16655e+06 -1.36797e+06  3.60890e+02  0.00000e+00 -2.01060e+05 -4.25181e+03 -2.05312e+05  3.31602e-01  1.00000e+00  7.84917e+01  0.00000e+00  2.49568e+01 
 1.00521e-02  8.95702e-03  0.00000e+00  3.47944e+00  3.23257e-04  3.60327e+02  3.60053e+02  2.88453e+00  2.92739e+00  3.42223e-01 -1.79110e+02  1.07830e+02  1.57823e+06 -1.86853e+06  3.79344e+02  0.00000e+00 -2.89920e+05 -1.06124e+04 -3.00532e+05  3.42293e-01  1.00000e+00  1.79982e+02  0.00000e+00  3.57562e+01 
 1.02653e-02  9.19555e-03  0.00000e+00  3.47944e+00  2.74109e-04  3.60537e+02  3.60054e+02  2.58593e+00  2.62166e+00  3.54142e-01 -4.27879e+02  1.27166e+02  2.42967e+06 -2.86957e+06  3.97818e+02  0.00000e+00 -4.39498e+05 -2.88286e+04 -4.68327e+05  3.54220e-01  1.00000e+00  4.29012e+02  0.00000e+00  5.94102e+01 
 1.04795e-02  9.43408e-03  0.00000e+00  3.47944e+00  2.14869e-04  3.61079e+02  3.60054e+02  2.14594e+00  2.16829e+00  3.69213e-01 -4.57816e+03  1.62228e+02  4.93975e+06 -5.06717e+06  4.37064e+02  1.41212e+06  1.28514e+06 -1.31182e+06 -2.66820e+04  3.69275e-01  1.00000e+00  4.57980e+03  3.19368e+03  1.50871e+02 
