# Code_Saturne plot output (1D profile)
#
# Iteration output: 5099
# Time output:      2.30004e+01
#
#COLUMN_TITLES: Distance | X | Y | Z | diameter_Field2 | temp_Field1 | temp_Field2 | Velocity_Field1[Z] | Velocity_Field2[Z] | vol_f_Field2 | mass_trans_Field1 | Xd_Field2 | BK | COAL | COMP | NUCL | W1 | MT | SMBR | ALPBB | CONDNUM | GAMA | GAMANUC | epsilon_Field1
 4.56474e-03  1.39645e-04  0.00000e+00  3.47944e+00  4.73797e-04  3.59869e+02  3.60058e+02  5.24338e+00  5.33952e+00  2.40555e-01  2.09833e+01  7.35273e+01  1.74665e+05 -3.90936e+05  5.76546e+02  0.00000e+00 -2.15695e+05  2.00114e+03 -2.13693e+05  2.40556e-01  1.00000e+00 -2.10241e+01  0.00000e+00  1.51897e+00 
 4.57812e-03  3.76525e-04  4.25872e-21  3.47944e+00  4.96049e-04  3.59869e+02  3.60058e+02  5.24225e+00  5.33885e+00  2.41329e-01  1.95808e+01  7.02288e+01  1.66521e+05 -3.58552e+05  5.50569e+02  0.00000e+00 -1.91480e+05  1.77790e+03 -1.89702e+05  2.41329e-01  1.00000e+00 -1.96190e+01  0.00000e+00  1.53282e+00 
 4.60371e-03  6.13858e-04  0.00000e+00  3.47944e+00  5.17640e-04  3.59871e+02  3.60058e+02  5.23948e+00  5.33602e+00  2.42516e-01  1.83435e+01  6.72996e+01  1.59724e+05 -3.31659e+05  5.27437e+02  0.00000e+00 -1.71407e+05  1.58829e+03 -1.69819e+05  2.42515e-01  1.00000e+00 -1.83796e+01  0.00000e+00  1.56002e+00 
 4.64138e-03  8.51483e-04  0.00000e+00  3.47944e+00  5.40533e-04  3.59873e+02  3.60058e+02  5.23530e+00  5.33153e+00  2.44274e-01  1.71566e+01  6.44492e+01  1.53366e+05 -3.07007e+05  5.04837e+02  0.00000e+00 -1.53136e+05  1.41240e+03 -1.51724e+05  2.44272e-01  1.00000e+00 -1.71906e+01  0.00000e+00  1.60093e+00 
 4.69084e-03  1.08931e-03  0.00000e+00  3.47944e+00  5.65611e-04  3.59875e+02  3.60058e+02  5.22963e+00  5.32538e+00  2.46572e-01  1.59809e+01  6.15917e+01  1.47097e+05 -2.83318e+05  4.82100e+02  0.00000e+00 -1.35739e+05  1.24560e+03 -1.34493e+05  2.46568e-01  1.00000e+00 -1.60131e+01  0.00000e+00  1.65612e+00 
 4.75174e-03  1.32727e-03  1.05001e-20  3.47944e+00  5.92738e-04  3.59879e+02  3.60058e+02  5.22247e+00  5.31760e+00  2.49411e-01  1.48337e+01  5.87730e+01  1.40946e+05 -2.60711e+05  4.59595e+02  0.00000e+00 -1.19305e+05  1.09074e+03 -1.18215e+05  2.49405e-01  1.00000e+00 -1.48640e+01  0.00000e+00  1.72630e+00 
 4.82366e-03  1.56534e-03  0.00000e+00  3.47944e+00  6.21268e-04  3.59883e+02  3.60058e+02  5.21378e+00  5.30816e+00  2.52781e-01  1.37427e+01  5.60740e+01  1.35087e+05 -2.39652e+05  4.37971e+02  0.00000e+00 -1.04128e+05  9.51305e+02 -1.03176e+05  2.52774e-01  1.00000e+00 -1.37713e+01  0.00000e+00  1.81231e+00 
 4.90611e-03  1.80349e-03  8.81027e-21  3.47944e+00  6.50207e-04  3.59888e+02  3.60058e+02  5.20348e+00  5.29702e+00  2.56637e-01  1.27322e+01  5.35783e+01  1.29752e+05 -2.20622e+05  4.17892e+02  0.00000e+00 -9.04524e+04  8.29526e+02 -8.96229e+04  2.56627e-01  1.00000e+00 -1.27594e+01  0.00000e+00  1.91522e+00 
 4.99859e-03  2.04170e-03  0.00000e+00  3.47944e+00  6.78438e-04  3.59893e+02  3.60058e+02  5.19152e+00  5.28412e+00  2.60994e-01  1.18186e+01  5.13488e+01  1.25135e+05 -2.04007e+05  3.99838e+02  0.00000e+00 -7.84721e+04  7.25694e+02 -7.77464e+04  2.60982e-01  1.00000e+00 -1.18447e+01  0.00000e+00  2.03612e+00 
 5.10055e-03  2.27996e-03  7.58893e-21  3.47944e+00  7.04818e-04  3.59900e+02  3.60058e+02  5.17782e+00  5.26941e+00  2.65786e-01  1.10053e+01  4.94270e+01  1.21409e+05 -1.89979e+05  3.84122e+02  0.00000e+00 -6.81859e+04  6.38787e+02 -6.75471e+04  2.65773e-01  1.00000e+00 -1.10305e+01  0.00000e+00  2.17638e+00 
 5.21143e-03  2.51826e-03  7.09702e-21  3.47944e+00  7.28372e-04  3.59907e+02  3.60058e+02  5.16231e+00  5.25282e+00  2.70997e-01  1.02875e+01  4.78287e+01  1.18661e+05 -1.78570e+05  3.70890e+02  0.00000e+00 -5.95380e+04  5.66757e+02 -5.89712e+04  2.70981e-01  1.00000e+00 -1.03120e+01  0.00000e+00  2.33732e+00 
 5.33068e-03  2.75659e-03  1.33300e-20  3.47944e+00  7.48351e-04  3.59915e+02  3.60058e+02  5.14490e+00  5.23426e+00  2.76496e-01  9.65077e+00  4.65519e+01  1.16949e+05 -1.69641e+05  3.60098e+02  0.00000e+00 -5.23321e+04  5.07246e+02 -5.18248e+04  2.76481e-01  1.00000e+00 -9.67489e+00  0.00000e+00  2.52048e+00 
 5.45775e-03  2.99495e-03  1.25651e-20  3.47944e+00  7.64334e-04  3.59923e+02  3.60058e+02  5.12552e+00  5.21366e+00  2.82319e-01  9.08044e+00  4.55785e+01  1.16250e+05 -1.63060e+05  3.51572e+02  0.00000e+00 -4.64585e+04  4.57716e+02 -4.60007e+04  2.82302e-01  1.00000e+00 -9.10441e+00  0.00000e+00  2.72730e+00 
 5.59212e-03  3.23333e-03  0.00000e+00  3.47944e+00  7.76153e-04  3.59932e+02  3.60058e+02  5.10409e+00  5.19096e+00  2.88316e-01  8.55559e+00  4.48845e+01  1.16566e+05 -1.58565e+05  3.45057e+02  0.00000e+00 -4.16539e+04  4.15928e+02 -4.12379e+04  2.88299e-01  1.00000e+00 -8.57961e+00  0.00000e+00  2.96047e+00 
 5.73326e-03  3.47172e-03  0.00000e+00  3.47944e+00  7.83912e-04  3.59942e+02  3.60058e+02  5.08054e+00  5.16612e+00  2.94430e-01  8.05678e+00  4.44403e+01  1.17826e+05 -1.55937e+05  3.40385e+02  0.00000e+00 -3.77709e+04  3.79823e+02 -3.73911e+04  2.94415e-01  1.00000e+00 -8.08108e+00  0.00000e+00  3.22062e+00 
 5.88069e-03  3.71014e-03 -5.35987e-21  3.47944e+00  7.87867e-04  3.59952e+02  3.60058e+02  5.05479e+00  5.13908e+00  3.00548e-01  7.56328e+00  4.42174e+01  1.20002e+05 -1.54945e+05  3.37280e+02  0.00000e+00 -3.46057e+04  3.47631e+02 -3.42581e+04  3.00536e-01  1.00000e+00 -7.58803e+00  0.00000e+00  3.51026e+00 
 6.03395e-03  3.94857e-03  5.10973e-21  3.47944e+00  7.88416e-04  3.59963e+02  3.60058e+02  5.02678e+00  5.10980e+00  3.06742e-01  7.06024e+00  4.41867e+01  1.23025e+05 -1.55451e+05  3.35569e+02  0.00000e+00 -3.20903e+04  3.17835e+02 -3.17724e+04  3.06731e-01  1.00000e+00 -7.08561e+00  0.00000e+00  3.83185e+00 
 6.19261e-03  4.18701e-03  0.00000e+00  3.47944e+00  7.85950e-04  3.59975e+02  3.60058e+02  4.99643e+00  5.07819e+00  3.12958e-01  6.52931e+00  4.43254e+01  1.26872e+05 -1.57311e+05  3.35007e+02  0.00000e+00 -3.01034e+04  2.89119e+02 -2.98143e+04  3.12946e-01  1.00000e+00 -6.55546e+00  0.00000e+00  4.18828e+00 
 6.35626e-03  4.42546e-03  0.00000e+00  3.47944e+00  7.80900e-04  3.59986e+02  3.60058e+02  4.96355e+00  5.04408e+00  3.19291e-01  5.95704e+00  4.46122e+01  1.31489e+05 -1.60464e+05  3.35435e+02  0.00000e+00 -2.86392e+04  2.60362e+02 -2.83789e+04  3.19275e-01  1.00000e+00 -5.98413e+00  0.00000e+00  4.58242e+00 
 6.52453e-03  4.66392e-03 -8.96437e-21  3.47944e+00  7.73588e-04  3.59999e+02  3.60058e+02  4.92811e+00  5.00765e+00  3.25658e-01  5.32982e+00  4.50340e+01  1.36908e+05 -1.64832e+05  3.36602e+02  0.00000e+00 -2.75864e+04  2.30723e+02 -2.73557e+04  3.25642e-01  1.00000e+00 -5.35803e+00  0.00000e+00  5.01939e+00 
 6.69707e-03  4.90238e-03  1.72236e-20  3.47944e+00  7.64354e-04  3.60011e+02  3.60058e+02  4.89008e+00  4.96880e+00  3.32064e-01  4.62704e+00  4.55782e+01  1.43113e+05 -1.70403e+05  3.38455e+02  0.00000e+00 -2.69518e+04  1.99021e+02 -2.67527e+04  3.32050e-01  1.00000e+00 -4.65651e+00  0.00000e+00  5.50146e+00 
 6.87356e-03  5.14086e-03  8.28595e-21  3.47944e+00  7.53391e-04  3.60024e+02  3.60059e+02  4.84942e+00  4.92735e+00  3.38372e-01  3.83165e+00  4.62417e+01  1.50214e+05 -1.77162e+05  3.40909e+02  0.00000e+00 -2.66079e+04  1.64365e+02 -2.64435e+04  3.38360e-01  1.00000e+00 -3.86252e+00  0.00000e+00  6.03630e+00 
 7.05370e-03  5.37934e-03 -1.59677e-20  3.47944e+00  7.40943e-04  3.60038e+02  3.60059e+02  4.80588e+00  4.88304e+00  3.44729e-01  2.92885e+00  4.70187e+01  1.58219e+05 -1.85239e+05  3.43942e+02  0.00000e+00 -2.66754e+04  1.25767e+02 -2.65496e+04  3.44720e-01  1.00000e+00 -2.96129e+00  0.00000e+00  6.62928e+00 
 7.23722e-03  5.61783e-03  0.00000e+00  3.47944e+00  7.27069e-04  3.60052e+02  3.60059e+02  4.75946e+00  4.83573e+00  3.50964e-01  1.89895e+00  4.79161e+01  1.67339e+05 -1.94709e+05  3.47546e+02  0.00000e+00 -2.70224e+04  8.21809e+01 -2.69402e+04  3.50954e-01  1.00000e+00 -1.93311e+00  0.00000e+00  7.29245e+00 
 7.42387e-03  5.85632e-03  0.00000e+00  3.47944e+00  7.11946e-04  3.60066e+02  3.60059e+02  4.70965e+00  4.78500e+00  3.57091e-01  7.20729e-01  4.89342e+01  1.77664e+05 -2.05728e+05  3.51693e+02  0.00000e+00 -2.77121e+04  3.22927e+01 -2.76798e+04  3.57082e-01  1.00000e+00 -7.56797e-01  0.00000e+00  8.03363e+00 
 7.61342e-03  6.09482e-03  0.00000e+00  3.47944e+00  6.95563e-04  3.60080e+02  3.60059e+02  4.65658e+00  4.73092e+00  3.62986e-01 -1.54496e+00  5.00870e+01  1.89497e+05 -2.18511e+05  3.56460e+02  0.00000e+00 -2.86575e+04 -6.26371e+01 -2.87201e+04  3.62979e-01  1.00000e+00  1.45783e+00  0.00000e+00  8.87045e+00 
 7.80566e-03  6.33332e-03  0.00000e+00  3.47944e+00  6.78091e-04  3.60095e+02  3.60060e+02  4.59916e+00  4.67242e+00  3.68885e-01 -5.13540e+00  5.13778e+01  2.02960e+05 -2.33397e+05  3.61696e+02  0.00000e+00 -3.00750e+04 -2.18710e+02 -3.02937e+04  3.68877e-01  1.00000e+00  5.04306e+00  0.00000e+00  9.81864e+00 
 8.00039e-03  6.57182e-03  0.00000e+00  3.47944e+00  6.59367e-04  3.60111e+02  3.60060e+02  4.53821e+00  4.61029e+00  3.74659e-01 -9.32178e+00  5.28371e+01  2.18603e+05 -2.50841e+05  3.67565e+02  0.00000e+00 -3.18705e+04 -4.05041e+02 -3.22755e+04  3.74647e-01  1.00000e+00  9.22363e+00  0.00000e+00  1.09128e+01 
 8.19744e-03  6.81033e-03  1.31016e-20  3.47944e+00  6.39495e-04  3.60127e+02  3.60060e+02  4.47099e+00  4.54188e+00  3.80519e-01 -1.42751e+01  5.44793e+01  2.36687e+05 -2.71507e+05  3.73776e+02  0.00000e+00 -3.44458e+04 -6.31737e+02 -3.50775e+04  3.80503e-01  1.00000e+00  1.41704e+01  0.00000e+00  1.21756e+01 
 8.39664e-03  7.04884e-03  0.00000e+00  3.47944e+00  6.18138e-04  3.60144e+02  3.60060e+02  4.40041e+00  4.47010e+00  3.86159e-01 -2.02348e+01  5.63620e+01  2.58323e+05 -2.96215e+05  3.80719e+02  0.00000e+00 -3.75109e+04 -9.14548e+02 -3.84254e+04  3.86140e-01  1.00000e+00  2.01227e+01  0.00000e+00  1.36749e+01 
 8.59784e-03  7.28736e-03  0.00000e+00  3.47944e+00  5.95404e-04  3.60163e+02  3.60061e+02  4.31904e+00  4.38754e+00  3.91947e-01 -2.75602e+01  5.85144e+01  2.83950e+05 -3.26425e+05  3.88425e+02  0.00000e+00 -4.20866e+04 -1.27559e+03 -4.33622e+04  3.91929e-01  1.00000e+00  2.74396e+01  0.00000e+00  1.54410e+01 
 8.80092e-03  7.52587e-03  0.00000e+00  3.47944e+00  5.70715e-04  3.60183e+02  3.60061e+02  4.23642e+00  4.30391e+00  3.97565e-01 -3.68238e+01  6.10462e+01  3.15906e+05 -3.63920e+05  3.97524e+02  0.00000e+00 -4.76165e+04 -1.75442e+03 -4.93709e+04  3.97545e-01  1.00000e+00  3.66932e+01  0.00000e+00  1.76341e+01 
 9.00573e-03  7.76439e-03 -1.17014e-20  3.47944e+00  5.44174e-04  3.60207e+02  3.60062e+02  4.13328e+00  4.20001e+00  4.03383e-01 -4.89212e+01  6.40243e+01  3.55374e+05 -4.11933e+05  4.07540e+02  0.00000e+00 -5.61519e+04 -2.41074e+03 -5.85627e+04  4.03363e-01  1.00000e+00  4.87787e+01  0.00000e+00  2.03153e+01 
 9.21216e-03  8.00291e-03  0.00000e+00  3.47944e+00  5.14781e-04  3.60235e+02  3.60062e+02  4.03611e+00  4.10204e+00  4.09172e-01 -6.54487e+01  6.76805e+01  4.07921e+05 -4.75099e+05  4.20119e+02  0.00000e+00 -6.67585e+04 -3.36284e+03 -7.01214e+04  4.09149e-01  1.00000e+00  6.52915e+01  0.00000e+00  2.39010e+01 
 9.42012e-03  8.24144e-03  0.00000e+00  3.47944e+00  4.82664e-04  3.60269e+02  3.60063e+02  3.89273e+00  3.95735e+00  4.15265e-01 -8.90987e+01  7.21848e+01  4.77182e+05 -5.62349e+05  4.34112e+02  0.00000e+00 -8.47334e+04 -4.81310e+03 -8.95465e+04  4.15242e-01  1.00000e+00  8.89232e+01  0.00000e+00  2.85437e+01 
 9.62949e-03  8.47996e-03  0.00000e+00  3.47944e+00  4.46006e-04  3.60314e+02  3.60063e+02  3.77111e+00  3.83418e+00  4.21496e-01 -1.25832e+02  7.81185e+01  5.79599e+05 -6.89031e+05  4.53509e+02  0.00000e+00 -1.08979e+05 -7.25013e+03 -1.16229e+05  4.21474e-01  1.00000e+00  1.25632e+02  0.00000e+00  3.54969e+01 
 9.84019e-03  8.71849e-03  0.00000e+00  3.47944e+00  4.04737e-04  3.60379e+02  3.60064e+02  3.55878e+00  3.61767e+00  4.28121e-01 -1.87780e+02  8.60851e+01  7.34070e+05 -8.86874e+05  4.73414e+02  0.00000e+00 -1.52330e+05 -1.17419e+04 -1.64072e+05  4.28103e-01  1.00000e+00  1.87547e+02  0.00000e+00  4.58482e+01 
 1.00521e-02  8.95702e-03  0.00000e+00  3.47944e+00  3.55404e-04  3.60484e+02  3.60064e+02  3.37727e+00  3.42891e+00  4.35092e-01 -3.11349e+02  9.80355e+01  1.01633e+06 -1.22792e+06  5.05909e+02  0.00000e+00 -2.11088e+05 -2.18217e+04 -2.32910e+05  4.35082e-01  1.00000e+00  3.11065e+02  0.00000e+00  6.56953e+01 
 1.02653e-02  9.19555e-03  0.00000e+00  3.47944e+00  2.98731e-04  3.60689e+02  3.60066e+02  2.99276e+00  3.03539e+00  4.43217e-01 -6.16202e+02  1.16636e+02  1.58636e+06 -1.86973e+06  5.30728e+02  0.00000e+00 -2.82839e+05 -5.04558e+04 -3.33295e+05  4.43227e-01  1.00000e+00  6.15835e+02  0.00000e+00  1.08853e+02 
 1.04795e-02  9.43408e-03  0.00000e+00  3.47944e+00  2.35878e-04  3.61268e+02  3.60067e+02  2.48979e+00  2.51763e+00  4.53666e-01 -5.18124e+03  1.47719e+02  3.17928e+06 -2.85219e+06  5.73004e+02  9.47353e+05  1.27502e+06 -1.26975e+06  5.26977e+03  4.53685e-01  1.00000e+00  5.18072e+03  3.42907e+03  2.75369e+02 
