# Code_Saturne plot output (1D profile)
#
# Iteration output: 4423
# Time output:      2.30006e+01
#
#COLUMN_TITLES: Distance | X | Y | Z | diameter_Field2 | temp_Field1 | temp_Field2 | Velocity_Field1[Z] | Velocity_Field2[Z] | vol_f_Field2 | mass_trans_Field1 | Xd_Field2 | BK | COAL | COMP | NUCL | W1 | MT | SMBR | ALPBB | CONDNUM | GAMA | GAMANUC | epsilon_Field1
 4.56474e-03  1.39645e-04  0.00000e+00  3.47944e+00  7.85162e-05  3.59812e+02  3.60054e+02  4.74336e+00  4.75761e+00  8.58146e-02  1.00417e+02  4.43808e+02  2.80541e+00 -1.08649e+06  2.73116e+03  0.00000e+00 -1.08376e+06  2.08003e+05 -8.75753e+05  8.58002e-02  1.00000e+00 -1.00702e+02  0.00000e+00  5.66980e-01 
 4.57812e-03  3.76525e-04  4.25872e-21  3.47944e+00  1.06937e-04  3.59812e+02  3.60054e+02  4.74273e+00  4.76397e+00  8.67513e-02  6.67058e+01  3.25855e+02  9.94812e+02 -6.48988e+05  2.00620e+03  0.00000e+00 -6.45987e+05  1.00353e+05 -5.45634e+05  8.67383e-02  1.00000e+00 -6.68961e+01  0.00000e+00  5.74086e-01 
 4.60371e-03  6.13858e-04  0.00000e+00  3.47944e+00  1.30327e-04  3.59813e+02  3.60054e+02  4.74108e+00  4.76802e+00  8.84805e-02  5.20943e+01  2.67373e+02  9.18299e+03 -4.74507e+05  1.64728e+03  0.00000e+00 -4.63676e+05  6.30487e+04 -4.00628e+05  8.84680e-02  1.00000e+00 -5.22439e+01  0.00000e+00  5.87974e-01 
 4.64138e-03  8.51483e-04  0.00000e+00  3.47944e+00  1.49140e-04  3.59815e+02  3.60054e+02  4.73868e+00  4.77012e+00  9.09645e-02  4.45660e+01  2.33646e+02  2.65932e+04 -3.90869e+05  1.44020e+03  0.00000e+00 -3.62835e+05  4.58466e+04 -3.16989e+05  9.09522e-02  1.00000e+00 -4.46951e+01  0.00000e+00  6.08897e-01 
 4.69084e-03  1.08931e-03  0.00000e+00  3.47944e+00  1.64456e-04  3.59818e+02  3.60054e+02  4.73545e+00  4.77045e+00  9.42336e-02  4.02499e+01  2.11886e+02  4.88647e+04 -3.46874e+05  1.30645e+03  0.00000e+00 -2.96703e+05  3.62481e+04 -2.60455e+05  9.42218e-02  1.00000e+00 -4.03680e+01  0.00000e+00  6.37231e-01 
 4.75174e-03  1.32727e-03  1.05001e-20  3.47944e+00  1.77007e-04  3.59822e+02  3.60054e+02  4.73135e+00  4.76917e+00  9.83039e-02  3.76640e+01  1.96862e+02  7.25371e+04 -3.24142e+05  1.21391e+03  0.00000e+00 -2.50391e+05  3.02103e+04 -2.20181e+05  9.82929e-02  1.00000e+00 -3.77764e+01  0.00000e+00  6.73562e-01 
 4.82366e-03  1.56534e-03  0.00000e+00  3.47944e+00  1.87474e-04  3.59827e+02  3.60054e+02  4.72636e+00  4.76644e+00  1.03203e-01  3.60815e+01  1.85871e+02  9.64144e+04 -3.14269e+05  1.14598e+03  0.00000e+00 -2.16709e+05  2.60292e+04 -1.90680e+05  1.03192e-01  1.00000e+00 -3.61916e+01  0.00000e+00  7.18650e-01 
 4.90611e-03  1.80349e-03  8.81027e-21  3.47944e+00  1.96475e-04  3.59834e+02  3.60054e+02  4.72039e+00  4.76229e+00  1.08951e-01  3.50836e+01  1.77356e+02  1.20442e+05 -3.12821e+05  1.09322e+03  0.00000e+00 -1.91286e+05  2.28772e+04 -1.68408e+05  1.08941e-01  1.00000e+00 -3.51937e+01  0.00000e+00  7.73450e-01 
 4.99859e-03  2.04170e-03  0.00000e+00  3.47944e+00  2.04538e-04  3.59841e+02  3.60054e+02  4.71335e+00  4.75670e+00  1.15569e-01  3.44073e+01  1.70364e+02  1.44828e+05 -3.17215e+05  1.04970e+03  0.00000e+00 -1.71337e+05  2.03196e+04 -1.51018e+05  1.15559e-01  1.00000e+00 -3.45189e+01  0.00000e+00  8.39092e-01 
 5.10055e-03  2.27996e-03  7.58893e-21  3.47944e+00  2.12095e-04  3.59850e+02  3.60054e+02  4.70514e+00  4.74973e+00  1.23048e-01  3.38697e+01  1.64294e+02  1.69681e+05 -3.25727e+05  1.01169e+03  0.00000e+00 -1.55035e+05  1.81194e+04 -1.36915e+05  1.23036e-01  1.00000e+00 -3.39838e+01  0.00000e+00  9.16935e-01 
 5.21143e-03  2.51826e-03  7.09702e-21  3.47944e+00  2.19495e-04  3.59859e+02  3.60053e+02  4.69561e+00  4.74132e+00  1.31415e-01  3.33473e+01  1.58755e+02  1.94858e+05 -3.37220e+05  9.76768e+02  0.00000e+00 -1.41386e+05  1.61434e+04 -1.25242e+05  1.31402e-01  1.00000e+00 -3.34647e+01  0.00000e+00  1.00843e+00 
 5.33068e-03  2.75659e-03  1.33300e-20  3.47944e+00  2.27011e-04  3.59869e+02  3.60053e+02  4.68462e+00  4.73139e+00  1.40601e-01  3.27300e+01  1.53499e+02  2.20097e+05 -3.50618e+05  9.43230e+02  0.00000e+00 -1.29578e+05  1.43216e+04 -1.15256e+05  1.40587e-01  1.00000e+00 -3.28511e+01  0.00000e+00  1.11562e+00 
 5.45775e-03  2.99495e-03  1.25651e-20  3.47944e+00  2.34858e-04  3.59880e+02  3.60053e+02  4.67196e+00  4.71980e+00  1.50545e-01  3.19465e+01  1.48371e+02  2.44812e+05 -3.64976e+05  9.10395e+02  0.00000e+00 -1.19254e+05  1.26218e+04 -1.06632e+05  1.50532e-01  1.00000e+00 -3.20715e+01  0.00000e+00  1.24007e+00 
 5.59212e-03  3.23333e-03  0.00000e+00  3.47944e+00  2.43184e-04  3.59891e+02  3.60053e+02  4.65744e+00  4.70638e+00  1.61124e-01  3.09334e+01  1.43291e+02  2.68401e+05 -3.79379e+05  8.77708e+02  0.00000e+00 -1.10100e+05  1.10308e+04 -9.90693e+04  1.61110e-01  1.00000e+00 -3.10622e+01  0.00000e+00  1.38367e+00 
 5.73326e-03  3.47172e-03  0.00000e+00  3.47944e+00  2.52093e-04  3.59902e+02  3.60053e+02  4.64087e+00  4.69094e+00  1.72268e-01  2.96803e+01  1.38227e+02  2.90312e+05 -3.93197e+05  8.45023e+02  0.00000e+00 -1.02040e+05  9.55239e+03 -9.24877e+04  1.72251e-01  1.00000e+00 -2.98125e+01  0.00000e+00  1.54880e+00 
 5.88069e-03  3.71014e-03 -5.35987e-21  3.47944e+00  2.61621e-04  3.59914e+02  3.60054e+02  4.62204e+00  4.67328e+00  1.83888e-01  2.81858e+01  1.33193e+02  3.10027e+05 -4.05918e+05  8.12257e+02  0.00000e+00 -9.50790e+04  8.19151e+03 -8.68875e+04  1.83869e-01  1.00000e+00 -2.83211e+01  0.00000e+00  1.73773e+00 
 6.03395e-03  3.94857e-03  5.10973e-21  3.47944e+00  2.71739e-04  3.59926e+02  3.60054e+02  4.60074e+00  4.65321e+00  1.95884e-01  2.64753e+01  1.28234e+02  3.27150e+05 -4.17172e+05  7.79743e+02  0.00000e+00 -8.92430e+04  6.95705e+03 -8.22860e+04  1.95864e-01  1.00000e+00 -2.66131e+01  0.00000e+00  1.95249e+00 
 6.19261e-03  4.18701e-03  0.00000e+00  3.47944e+00  2.82338e-04  3.59938e+02  3.60054e+02  4.57684e+00  4.63056e+00  2.08043e-01  2.45711e+01  1.23420e+02  3.41633e+05 -4.26645e+05  7.47734e+02  0.00000e+00 -8.42641e+04  5.85386e+03 -7.84102e+04  2.08024e-01  1.00000e+00 -2.47111e+01  0.00000e+00  2.19585e+00 
 6.35626e-03  4.42546e-03  0.00000e+00  3.47944e+00  2.93238e-04  3.59950e+02  3.60054e+02  4.55024e+00  4.60521e+00  2.20227e-01  2.25229e+01  1.18833e+02  3.53478e+05 -4.34325e+05  7.16936e+02  0.00000e+00 -8.01300e+04  4.88341e+03 -7.52466e+04  2.20209e-01  1.00000e+00 -2.26646e+01  0.00000e+00  2.46906e+00 
 6.52453e-03  4.66392e-03 -8.96437e-21  3.47944e+00  3.04182e-04  3.59962e+02  3.60054e+02  4.52088e+00  4.57706e+00  2.32206e-01  2.03685e+01  1.14558e+02  3.63175e+05 -4.40372e+05  6.87684e+02  0.00000e+00 -7.65096e+04  4.04061e+03 -7.24690e+04  2.32192e-01  1.00000e+00 -2.05114e+01  0.00000e+00  2.77515e+00 
 6.69707e-03  4.90238e-03  1.72236e-20  3.47944e+00  3.14876e-04  3.59974e+02  3.60054e+02  4.48871e+00  4.54603e+00  2.43940e-01  1.81651e+01  1.10667e+02  3.71207e+05 -4.45378e+05  6.60637e+02  0.00000e+00 -7.35103e+04  3.31660e+03 -7.01937e+04  2.43928e-01  1.00000e+00 -1.83091e+01  0.00000e+00  3.11636e+00 
 6.87356e-03  5.14086e-03  8.28595e-21  3.47944e+00  3.24984e-04  3.59986e+02  3.60054e+02  4.45374e+00  4.51202e+00  2.55341e-01  1.59426e+01  1.07225e+02  3.78361e+05 -4.50041e+05  6.36006e+02  0.00000e+00 -7.10444e+04  2.69747e+03 -6.83470e+04  2.55330e-01  1.00000e+00 -1.60877e+01  0.00000e+00  3.49713e+00 
 7.05370e-03  5.37934e-03 -1.59677e-20  3.47944e+00  3.34181e-04  3.59997e+02  3.60054e+02  4.41590e+00  4.47497e+00  2.66380e-01  1.37274e+01  1.04275e+02  3.85323e+05 -4.55103e+05  6.14165e+02  0.00000e+00 -6.91662e+04  2.16847e+03 -6.69977e+04  2.66369e-01  1.00000e+00 -1.38738e+01  0.00000e+00  3.92111e+00 
 7.23722e-03  5.61783e-03  0.00000e+00  3.47944e+00  3.42142e-04  3.60009e+02  3.60054e+02  4.37516e+00  4.43475e+00  2.77000e-01  1.15212e+01  1.01849e+02  3.92975e+05 -4.61368e+05  5.95123e+02  0.00000e+00 -6.77977e+04  1.71316e+03 -6.60845e+04  2.76988e-01  1.00000e+00 -1.16693e+01  0.00000e+00  4.39561e+00 
 7.42387e-03  5.85632e-03  0.00000e+00  3.47944e+00  3.48620e-04  3.60020e+02  3.60054e+02  4.33126e+00  4.39108e+00  2.87248e-01  9.31882e+00  9.99566e+01  4.01926e+05 -4.69623e+05  5.79006e+02  0.00000e+00 -6.71178e+04  1.31565e+03 -6.58021e+04  2.87235e-01  1.00000e+00 -9.46913e+00  0.00000e+00  4.92677e+00 
 7.61342e-03  6.09482e-03  0.00000e+00  3.47944e+00  3.53382e-04  3.60031e+02  3.60054e+02  4.28415e+00  4.34386e+00  2.97043e-01  7.09546e+00  9.86101e+01  4.13094e+05 -4.80623e+05  5.65639e+02  0.00000e+00 -6.69630e+04  9.60808e+02 -6.60022e+04  2.97029e-01  1.00000e+00 -7.24869e+00  0.00000e+00  5.52756e+00 
 7.80566e-03  6.33332e-03  0.00000e+00  3.47944e+00  3.56317e-04  3.60043e+02  3.60055e+02  4.23324e+00  4.29249e+00  3.06539e-01  4.81897e+00  9.77982e+01  4.26919e+05 -4.95225e+05  5.55002e+02  0.00000e+00 -6.77513e+04  6.33868e+02 -6.71174e+04  3.06523e-01  1.00000e+00 -4.97600e+00  0.00000e+00  6.20803e+00 
 8.00039e-03  6.57182e-03  0.00000e+00  3.47944e+00  3.57283e-04  3.60054e+02  3.60055e+02  4.17860e+00  4.23700e+00  3.15602e-01  2.44156e+00  9.75344e+01  4.44516e+05 -5.14254e+05  5.46846e+02  0.00000e+00 -6.91909e+04  3.21236e+02 -6.88696e+04  3.15584e-01  1.00000e+00 -2.60335e+00  0.00000e+00  6.99171e+00 
 8.19744e-03  6.81033e-03  1.31016e-20  3.47944e+00  3.56287e-04  3.60065e+02  3.60055e+02  4.11888e+00  4.17608e+00  3.24430e-01 -9.83511e-02  9.78076e+01  4.66338e+05 -5.38749e+05  5.41107e+02  0.00000e+00 -7.18700e+04  8.35140e+00 -7.18616e+04  3.24411e-01  1.00000e+00 -6.93802e-02  0.00000e+00  7.89617e+00 
 8.39664e-03  7.04884e-03  0.00000e+00  3.47944e+00  3.53244e-04  3.60077e+02  3.60055e+02  4.05489e+00  4.11048e+00  3.32933e-01 -6.54678e+00  9.86505e+01  4.93935e+05 -5.70074e+05  5.37670e+02  0.00000e+00 -7.56009e+04 -7.28974e+02 -7.63299e+04  3.32912e-01  1.00000e+00  6.16160e+00  0.00000e+00  8.96446e+00 
 8.59784e-03  7.28736e-03  0.00000e+00  3.47944e+00  3.48174e-04  3.60088e+02  3.60055e+02  3.98314e+00  4.03678e+00  3.41291e-01 -1.37193e+01  1.00087e+02  5.28344e+05 -6.10010e+05  5.36083e+02  0.00000e+00 -8.11303e+04 -1.55911e+03 -8.26894e+04  3.41269e-01  1.00000e+00  1.33152e+01  0.00000e+00  1.02347e+01 
 8.80092e-03  7.52587e-03  0.00000e+00  3.47944e+00  3.40859e-04  3.60101e+02  3.60056e+02  3.90722e+00  3.95856e+00  3.49350e-01 -2.23392e+01  1.02236e+02  5.72787e+05 -6.61643e+05  5.36789e+02  0.00000e+00 -8.83198e+04 -2.56033e+03 -9.08801e+04  3.49327e-01  1.00000e+00  2.19118e+01  0.00000e+00  1.17998e+01 
 9.00573e-03  7.76439e-03 -1.17014e-20  3.47944e+00  3.31308e-04  3.60115e+02  3.60056e+02  3.81717e+00  3.86584e+00  3.57442e-01 -3.33024e+01  1.05184e+02  6.29338e+05 -7.29074e+05  5.39854e+02  0.00000e+00 -9.91965e+04 -3.85926e+03 -1.03056e+05  3.57418e-01  1.00000e+00  3.28464e+01  0.00000e+00  1.37300e+01 
 9.21216e-03  8.00291e-03  0.00000e+00  3.47944e+00  3.19185e-04  3.60132e+02  3.60056e+02  3.72492e+00  3.77052e+00  3.65333e-01 -4.81495e+01  1.09180e+02  7.05779e+05 -8.19458e+05  5.45782e+02  0.00000e+00 -1.13133e+05 -5.68663e+03 -1.18820e+05  3.65309e-01  1.00000e+00  4.76574e+01  0.00000e+00  1.62800e+01 
 9.42012e-03  8.24144e-03  0.00000e+00  3.47944e+00  3.04502e-04  3.60154e+02  3.60057e+02  3.60411e+00  3.64636e+00  3.73393e-01 -6.97226e+01  1.14445e+02  8.08030e+05 -9.42788e+05  5.53755e+02  0.00000e+00 -1.34204e+05 -8.46674e+03 -1.42671e+05  3.73366e-01  1.00000e+00  6.91849e+01  0.00000e+00  1.96410e+01 
 9.62949e-03  8.47996e-03  0.00000e+00  3.47944e+00  2.86721e-04  3.60183e+02  3.60057e+02  3.48268e+00  3.52045e+00  3.81453e-01 -1.03899e+02  1.21544e+02  9.56903e+05 -1.11908e+06  5.67172e+02  0.00000e+00 -1.61606e+05 -1.31423e+04 -1.74748e+05  3.81426e-01  1.00000e+00  1.03301e+02  0.00000e+00  2.45722e+01 
 9.84019e-03  8.71849e-03  0.00000e+00  3.47944e+00  2.65829e-04  3.60227e+02  3.60058e+02  3.30165e+00  3.33565e+00  3.89660e-01 -1.63785e+02  1.31098e+02  1.17615e+06 -1.37918e+06  5.80534e+02  0.00000e+00 -2.02450e+05 -2.19105e+04 -2.24360e+05  3.89632e-01  1.00000e+00  1.63107e+02  0.00000e+00  3.18984e+01 
 1.00521e-02  8.95702e-03  0.00000e+00  3.47944e+00  2.40865e-04  3.60304e+02  3.60058e+02  3.12349e+00  3.15408e+00  3.97964e-01 -2.86679e+02  1.44687e+02  1.55410e+06 -1.79448e+06  5.99786e+02  0.00000e+00 -2.39781e+05 -4.14987e+04 -2.81279e+05  3.97933e-01  1.00000e+00  2.85887e+02  0.00000e+00  4.55843e+01 
 1.02653e-02  9.19555e-03  0.00000e+00  3.47944e+00  2.12726e-04  3.60469e+02  3.60059e+02  2.79277e+00  2.82019e+00  4.07078e-01 -5.97949e+02  1.63828e+02  2.25976e+06 -2.46981e+06  6.04300e+02  0.00000e+00 -2.09452e+05 -9.59372e+04 -3.05389e+05  4.07045e-01  1.00000e+00  5.96994e+02  0.00000e+00  7.53190e+01 
 1.04795e-02  9.43408e-03  0.00000e+00  3.47944e+00  1.85373e-04  3.60984e+02  3.60060e+02  2.32855e+00  2.34740e+00  4.19227e-01 -4.94330e+03  1.88005e+02  3.93399e+06 -3.23665e+06  5.96112e+02  1.13668e+06  1.83462e+06 -1.84415e+06 -9.52749e+03  4.19211e-01  1.00000e+00  4.94212e+03  3.20740e+03  1.90080e+02 
