# Code_Saturne plot output (1D profile)
#
# Iteration output: 9627
# Time output:      2.30006e+01
#
#COLUMN_TITLES: Distance | X | Y | Z | diameter_Field2 | temp_Field1 | temp_Field2 | Velocity_Field1[Z] | Velocity_Field2[Z] | vol_f_Field2 | mass_trans_Field1 | Xd_Field2 | BK | COAL | COMP | NUCL | W1 | MT | SMBR | ALPBB | CONDNUM | GAMA | GAMANUC | epsilon_Field1
 4.56474e-03  1.39645e-04  0.00000e+00  3.47944e+00  9.62936e-04  3.60299e+02  3.60111e+02  7.89245e+00  8.06985e+00  6.30238e-01 -3.04872e+01  3.60836e+01  7.77037e+04 -7.96643e+04  8.40451e+02  0.00000e+00 -1.12020e+03 -7.53629e+02 -1.87383e+03  6.30236e-01  1.00000e+00  3.04758e+01  0.00000e+00  8.97968e+00 
 4.57812e-03  3.76525e-04  4.25872e-21  3.47944e+00  9.62415e-04  3.60299e+02  3.60111e+02  7.89195e+00  8.06990e+00  6.30284e-01 -3.05039e+01  3.61031e+01  7.78830e+04 -7.96059e+04  8.38513e+02  0.00000e+00 -8.84340e+02 -7.54395e+02 -1.63873e+03  6.30281e-01  1.00000e+00  3.04924e+01  0.00000e+00  9.01865e+00 
 4.60371e-03  6.13858e-04  0.00000e+00  3.47944e+00  9.60100e-04  3.60299e+02  3.60111e+02  7.88797e+00  8.06597e+00  6.30313e-01 -3.05583e+01  3.61901e+01  7.84164e+04 -7.99474e+04  8.40248e+02  0.00000e+00 -6.90759e+02 -7.57528e+02 -1.44829e+03  6.30310e-01  1.00000e+00  3.05469e+01  0.00000e+00  9.09538e+00 
 4.64138e-03  8.51483e-04  0.00000e+00  3.47944e+00  9.56062e-04  3.60298e+02  3.60111e+02  7.88246e+00  8.06008e+00  6.30375e-01 -3.06506e+01  3.63430e+01  7.92910e+04 -8.06847e+04  8.43366e+02  0.00000e+00 -5.50288e+02 -7.62951e+02 -1.31324e+03  6.30372e-01  1.00000e+00  3.06391e+01  0.00000e+00  9.21009e+00 
 4.69084e-03  1.08931e-03  0.00000e+00  3.47944e+00  9.50278e-04  3.60298e+02  3.60111e+02  7.87490e+00  8.05166e+00  6.30467e-01 -3.07804e+01  3.65642e+01  8.05234e+04 -8.18470e+04  8.47833e+02  0.00000e+00 -4.75746e+02 -7.70733e+02 -1.24648e+03  6.30464e-01  1.00000e+00  3.07688e+01  0.00000e+00  9.36389e+00 
 4.75174e-03  1.32727e-03  1.05001e-20  3.47944e+00  9.42754e-04  3.60297e+02  3.60111e+02  7.86542e+00  8.04084e+00  6.30605e-01 -3.09503e+01  3.68561e+01  8.21289e+04 -8.34673e+04  8.53758e+02  0.00000e+00 -4.84616e+02 -7.81003e+02 -1.26562e+03  6.30601e-01  1.00000e+00  3.09386e+01  0.00000e+00  9.55815e+00 
 4.82366e-03  1.56534e-03  0.00000e+00  3.47944e+00  9.33532e-04  3.60296e+02  3.60111e+02  7.85393e+00  8.02756e+00  6.30788e-01 -3.11627e+01  3.72202e+01  8.41273e+04 -8.55758e+04  8.61151e+02  0.00000e+00 -5.87362e+02 -7.93899e+02 -1.38126e+03  6.30783e-01  1.00000e+00  3.11507e+01  0.00000e+00  9.79476e+00 
 4.90611e-03  1.80349e-03  8.81027e-21  3.47944e+00  9.22714e-04  3.60295e+02  3.60111e+02  7.84043e+00  8.01188e+00  6.31035e-01 -3.14177e+01  3.76566e+01  8.65328e+04 -8.81899e+04  8.69974e+02  0.00000e+00 -7.87064e+02 -8.09463e+02 -1.59653e+03  6.31030e-01  1.00000e+00  3.14056e+01  0.00000e+00  1.00765e+01 
 4.99859e-03  2.04170e-03  0.00000e+00  3.47944e+00  9.10445e-04  3.60293e+02  3.60111e+02  7.82486e+00  7.99374e+00  6.31318e-01 -3.17133e+01  3.81641e+01  8.93670e+04 -9.13179e+04  8.80183e+02  0.00000e+00 -1.07072e+03 -8.27719e+02 -1.89844e+03  6.31313e-01  1.00000e+00  3.17010e+01  0.00000e+00  1.04058e+01 
 5.10055e-03  2.27996e-03  7.58893e-21  3.47944e+00  8.96897e-04  3.60292e+02  3.60111e+02  7.80711e+00  7.97310e+00  6.31716e-01 -3.20481e+01  3.87407e+01  9.26321e+04 -9.49640e+04  8.91523e+02  0.00000e+00 -1.44034e+03 -8.48556e+02 -2.28890e+03  6.31711e-01  1.00000e+00  3.20355e+01  0.00000e+00  1.07875e+01 
 5.21143e-03  2.51826e-03  7.09702e-21  3.47944e+00  8.82243e-04  3.60290e+02  3.60111e+02  7.78713e+00  7.94995e+00  6.32173e-01 -3.24192e+01  3.93843e+01  9.63566e+04 -9.91326e+04  9.04137e+02  0.00000e+00 -1.87189e+03 -8.72013e+02 -2.74390e+03  6.32167e-01  1.00000e+00  3.24064e+01  0.00000e+00  1.12245e+01 
 5.33068e-03  2.75659e-03  1.33300e-20  3.47944e+00  8.66643e-04  3.60289e+02  3.60111e+02  7.76482e+00  7.92423e+00  6.32742e-01 -3.28251e+01  4.00934e+01  1.00555e+05 -1.03831e+05  9.17972e+02  0.00000e+00 -2.35815e+03 -8.98016e+02 -3.25617e+03  6.32736e-01  1.00000e+00  3.28119e+01  0.00000e+00  1.17232e+01 
 5.45775e-03  2.99495e-03  1.25651e-20  3.47944e+00  8.50244e-04  3.60287e+02  3.60111e+02  7.74004e+00  7.89582e+00  6.33421e-01 -3.32650e+01  4.08668e+01  1.05252e+05 -1.09084e+05  9.32899e+02  0.00000e+00 -2.89942e+03 -9.26609e+02 -3.82603e+03  6.33413e-01  1.00000e+00  3.32514e+01  0.00000e+00  1.22876e+01 
 5.59212e-03  3.23333e-03  0.00000e+00  3.47944e+00  8.33164e-04  3.60285e+02  3.60112e+02  7.71275e+00  7.86474e+00  6.34233e-01 -3.37373e+01  4.17048e+01  1.10485e+05 -1.14906e+05  9.48775e+02  0.00000e+00 -3.47278e+03 -9.57804e+02 -4.43058e+03  6.34225e-01  1.00000e+00  3.37233e+01  0.00000e+00  1.29271e+01 
 5.73326e-03  3.47172e-03  0.00000e+00  3.47944e+00  8.15512e-04  3.60283e+02  3.60112e+02  7.68272e+00  7.83076e+00  6.35145e-01 -3.42440e+01  4.26077e+01  1.16293e+05 -1.21350e+05  9.65673e+02  0.00000e+00 -4.09151e+03 -9.91806e+02 -5.08332e+03  6.35138e-01  1.00000e+00  3.42296e+01  0.00000e+00  1.36453e+01 
 5.88069e-03  3.71014e-03 -5.35987e-21  3.47944e+00  7.97367e-04  3.60280e+02  3.60112e+02  7.64994e+00  7.79391e+00  6.36208e-01 -3.47848e+01  4.35775e+01  1.22724e+05 -1.28458e+05  9.83587e+02  0.00000e+00 -4.75029e+03 -1.02867e+03 -5.77896e+03  6.36202e-01  1.00000e+00  3.47700e+01  0.00000e+00  1.44545e+01 
 6.03395e-03  3.94857e-03  5.10973e-21  3.47944e+00  7.78811e-04  3.60278e+02  3.60112e+02  7.61406e+00  7.75384e+00  6.37371e-01 -3.53646e+01  4.46160e+01  1.29839e+05 -1.36303e+05  1.00249e+03  0.00000e+00 -5.46187e+03 -1.06878e+03 -6.53065e+03  6.37368e-01  1.00000e+00  3.53493e+01  0.00000e+00  1.53606e+01 
 6.19261e-03  4.18701e-03  0.00000e+00  3.47944e+00  7.59890e-04  3.60276e+02  3.60113e+02  7.57520e+00  7.71070e+00  6.38713e-01 -3.59844e+01  4.57272e+01  1.37702e+05 -1.44955e+05  1.02244e+03  0.00000e+00 -6.23067e+03 -1.11225e+03 -7.34292e+03  6.38710e-01  1.00000e+00  3.59686e+01  0.00000e+00  1.63806e+01 
 6.35626e-03  4.42546e-03  0.00000e+00  3.47944e+00  7.40664e-04  3.60273e+02  3.60113e+02  7.53269e+00  7.66381e+00  6.40099e-01 -3.66529e+01  4.69146e+01  1.46421e+05 -1.54512e+05  1.04344e+03  0.00000e+00 -7.04664e+03 -1.15980e+03 -8.20645e+03  6.40097e-01  1.00000e+00  3.66364e+01  0.00000e+00  1.75215e+01 
 6.52453e-03  4.66392e-03 -8.96437e-21  3.47944e+00  7.21133e-04  3.60271e+02  3.60113e+02  7.48715e+00  7.61378e+00  6.41652e-01 -3.73738e+01  4.81855e+01  1.56081e+05 -1.65114e+05  1.06579e+03  0.00000e+00 -7.96768e+03 -1.21171e+03 -9.17938e+03  6.41651e-01  1.00000e+00  3.73567e+01  0.00000e+00  1.88049e+01 
 6.69707e-03  4.90238e-03  1.72236e-20  3.47944e+00  7.01325e-04  3.60268e+02  3.60114e+02  7.43729e+00  7.55936e+00  6.43150e-01 -3.81663e+01  4.95468e+01  1.66880e+05 -1.76908e+05  1.08923e+03  0.00000e+00 -8.93821e+03 -1.26939e+03 -1.02076e+04  6.43148e-01  1.00000e+00  3.81485e+01  0.00000e+00  2.02424e+01 
 6.87356e-03  5.14086e-03  8.28595e-21  3.47944e+00  6.81277e-04  3.60266e+02  3.60114e+02  7.38415e+00  7.50159e+00  6.44815e-01 -3.90372e+01  5.10053e+01  1.78885e+05 -1.90066e+05  1.11429e+03  0.00000e+00 -1.00667e+04 -1.33311e+03 -1.13999e+04  6.44816e-01  1.00000e+00  3.90186e+01  0.00000e+00  2.18637e+01 
 7.05370e-03  5.37934e-03 -1.59677e-20  3.47944e+00  6.61013e-04  3.60263e+02  3.60115e+02  7.32547e+00  7.43823e+00  6.46541e-01 -4.00145e+01  5.25694e+01  1.92290e+05 -2.04824e+05  1.14002e+03  0.00000e+00 -1.13942e+04 -1.40462e+03 -1.27988e+04  6.46542e-01  1.00000e+00  3.99950e+01  0.00000e+00  2.36858e+01 
 7.23722e-03  5.61783e-03  0.00000e+00  3.47944e+00  6.40522e-04  3.60261e+02  3.60115e+02  7.26396e+00  7.37199e+00  6.48432e-01 -4.11138e+01  5.42517e+01  2.07330e+05 -2.21358e+05  1.16711e+03  0.00000e+00 -1.28602e+04 -1.48504e+03 -1.43452e+04  6.48434e-01  1.00000e+00  4.10934e+01  0.00000e+00  2.57648e+01 
 7.42387e-03  5.85632e-03  0.00000e+00  3.47944e+00  6.19830e-04  3.60259e+02  3.60116e+02  7.19457e+00  7.29781e+00  6.50284e-01 -4.23853e+01  5.60635e+01  2.24266e+05 -2.40137e+05  1.19486e+03  0.00000e+00 -1.46765e+04 -1.57758e+03 -1.62541e+04  6.50288e-01  1.00000e+00  4.23639e+01  0.00000e+00  2.81018e+01 
 7.61342e-03  6.09482e-03  0.00000e+00  3.47944e+00  5.98874e-04  3.60257e+02  3.60116e+02  7.12397e+00  7.22240e+00  6.52362e-01 -4.38612e+01  5.80260e+01  2.43458e+05 -2.61407e+05  1.22481e+03  0.00000e+00 -1.67244e+04 -1.68427e+03 -1.84087e+04  6.52364e-01  1.00000e+00  4.38388e+01  0.00000e+00  3.08022e+01 
 7.80566e-03  6.33332e-03  0.00000e+00  3.47944e+00  5.77665e-04  3.60255e+02  3.60117e+02  7.04064e+00  7.13415e+00  6.54195e-01 -4.56469e+01  6.01571e+01  2.65460e+05 -2.85881e+05  1.25532e+03  0.00000e+00 -1.91661e+04 -1.81213e+03 -2.09782e+04  6.54194e-01  1.00000e+00  4.56232e+01  0.00000e+00  3.38640e+01 
 8.00039e-03  6.57182e-03  0.00000e+00  3.47944e+00  5.56080e-04  3.60253e+02  3.60118e+02  6.96061e+00  7.04920e+00  6.56395e-01 -4.78054e+01  6.24930e+01  2.90745e+05 -3.14077e+05  1.28995e+03  0.00000e+00 -2.20414e+04 -1.96491e+03 -2.40063e+04  6.56391e-01  1.00000e+00  4.77804e+01  0.00000e+00  3.74706e+01 
 8.19744e-03  6.81033e-03  1.31016e-20  3.47944e+00  5.34142e-04  3.60253e+02  3.60119e+02  6.85752e+00  6.94101e+00  6.58318e-01 -5.05581e+01  6.50608e+01  3.20200e+05 -3.47274e+05  1.32366e+03  0.00000e+00 -2.57506e+04 -2.15714e+03 -2.79078e+04  6.58308e-01  1.00000e+00  5.05315e+01  0.00000e+00  4.16051e+01 
 8.39664e-03  7.04884e-03  0.00000e+00  3.47944e+00  5.11565e-04  3.60252e+02  3.60119e+02  6.76864e+00  6.84710e+00  6.60737e-01 -5.40563e+01  6.79331e+01  3.55025e+05 -3.86362e+05  1.36535e+03  0.00000e+00 -2.99714e+04 -2.39943e+03 -3.23709e+04  6.60723e-01  1.00000e+00  5.40281e+01  0.00000e+00  4.66540e+01 
 8.59784e-03  7.28736e-03  0.00000e+00  3.47944e+00  4.88472e-04  3.60253e+02  3.60120e+02  6.63603e+00  6.70908e+00  6.62727e-01 -5.88017e+01  7.11461e+01  3.96565e+05 -4.34026e+05  1.40319e+03  0.00000e+00 -3.60581e+04 -2.72535e+03 -3.87834e+04  6.62711e-01  1.00000e+00  5.87716e+01  0.00000e+00  5.25168e+01 
 8.80092e-03  7.52587e-03  0.00000e+00  3.47944e+00  4.64276e-04  3.60256e+02  3.60121e+02  6.53909e+00  6.60694e+00  6.65362e-01 -6.52194e+01  7.48550e+01  4.47808e+05 -4.92315e+05  1.45758e+03  0.00000e+00 -4.30490e+04 -3.16785e+03 -4.62169e+04  6.65344e-01  1.00000e+00  6.51870e+01  0.00000e+00  6.00196e+01 
 9.00573e-03  7.76439e-03 -1.17014e-20  3.47944e+00  4.39237e-04  3.60260e+02  3.60122e+02  6.36072e+00  6.42270e+00  6.67466e-01 -7.46005e+01  7.91241e+01  5.11419e+05 -5.66689e+05  1.49936e+03  0.00000e+00 -5.37706e+04 -3.81817e+03 -5.75888e+04  6.67450e-01  1.00000e+00  7.45654e+01  0.00000e+00  6.90427e+01 
 9.21216e-03  8.00291e-03  0.00000e+00  3.47944e+00  4.12266e-04  3.60268e+02  3.60123e+02  6.25481e+00  6.31138e+00  6.70368e-01 -8.84943e+01  8.43018e+01  5.95409e+05 -6.63517e+05  1.57401e+03  0.00000e+00 -6.65341e+04 -4.80495e+03 -7.13390e+04  6.70355e-01  1.00000e+00  8.84561e+01  0.00000e+00  8.14334e+01 
 9.42012e-03  8.24144e-03  0.00000e+00  3.47944e+00  3.83881e-04  3.60281e+02  3.60125e+02  5.99955e+00  6.04911e+00  6.72724e-01 -1.10943e+02  9.05379e+01  7.06148e+05 -7.97070e+05  1.62360e+03  0.00000e+00 -8.92982e+04 -6.44715e+03 -9.57453e+04  6.72714e-01  1.00000e+00  1.10900e+02  0.00000e+00  9.71563e+01 
 9.62949e-03  8.47996e-03  0.00000e+00  3.47944e+00  3.52098e-04  3.60304e+02  3.60125e+02  5.87172e+00  5.91590e+00  6.76063e-01 -1.49469e+02  9.87122e+01  8.68913e+05 -9.91115e+05  1.73408e+03  0.00000e+00 -1.20468e+05 -9.42407e+03 -1.29892e+05  6.76058e-01  1.00000e+00  1.49421e+02  0.00000e+00  1.21112e+02 
 9.84019e-03  8.71849e-03  0.00000e+00  3.47944e+00  3.17373e-04  3.60345e+02  3.60127e+02  5.49908e+00  5.53564e+00  6.78838e-01 -2.24224e+02  1.09517e+02  1.11502e+06 -1.29450e+06  1.79953e+03  0.00000e+00 -1.77688e+05 -1.56207e+04 -1.93308e+05  6.78833e-01  1.00000e+00  2.24170e+02  0.00000e+00  1.56360e+02 
 1.00521e-02  8.95702e-03  0.00000e+00  3.47944e+00  2.76335e-04  3.60426e+02  3.60129e+02  5.29298e+00  5.32525e+00  6.83163e-01 -3.96419e+02  1.25784e+02  1.56161e+06 -1.82613e+06  1.98006e+03  0.00000e+00 -2.62537e+05 -3.15193e+04 -2.94056e+05  6.83145e-01  1.00000e+00  3.96355e+02  0.00000e+00  2.23908e+02 
 1.02653e-02  9.19555e-03  0.00000e+00  3.47944e+00  2.28339e-04  3.60626e+02  3.60131e+02  4.66435e+00  4.68985e+00  6.86159e-01 -9.23945e+02  1.52230e+02  2.52017e+06 -2.89335e+06  2.09657e+03  0.00000e+00 -3.71082e+05 -8.85338e+04 -4.59616e+05  6.86134e-01  1.00000e+00  9.23864e+02  0.00000e+00  3.72269e+02 
 1.04795e-02  9.43408e-03  0.00000e+00  3.47944e+00  1.73817e-04  3.61353e+02  3.60134e+02  3.96760e+00  3.98559e+00  6.93387e-01 -7.96906e+03  1.99989e+02  5.32751e+06 -4.71130e+06  2.38702e+03  1.22518e+06  1.84378e+06 -1.83384e+06  9.94001e+03  6.93357e-01  1.00000e+00  7.96895e+03  4.37348e+03  9.47250e+02 
