# Code_Saturne plot output (1D profile)
#
# Iteration output: 3811
# Time output:      2.30007e+01
#
#COLUMN_TITLES: Distance | X | Y | Z | diameter_Field2 | temp_Field1 | temp_Field2 | Velocity_Field1[Z] | Velocity_Field2[Z] | vol_f_Field2 | mass_trans_Field1 | Xd_Field2 | BK | COAL | COMP | NUCL | W1 | MT | SMBR | ALPBB | CONDNUM | GAMA | GAMANUC | epsilon_Field1
 4.56474e-03  1.39645e-04  0.00000e+00  3.47944e+00  3.62860e-05  3.59353e+02  3.60052e+02  4.44072e+00  4.44505e+00  2.39419e-02  2.15047e+02  9.60427e+02  5.89779e-27 -1.02795e+06  5.10853e+03  0.00000e+00 -1.02285e+06  3.49132e+06  2.46848e+06  2.39300e-02  1.00000e+00 -2.15665e+02  0.00000e+00  3.80294e-01 
 4.57812e-03  3.76525e-04  4.25872e-21  3.47944e+00  5.44749e-05  3.59353e+02  3.60052e+02  4.44055e+00  4.44849e+00  2.49359e-02  1.26059e+02  6.39746e+02  7.65592e-10 -5.38821e+05  3.39497e+03  0.00000e+00 -5.35426e+05  1.30882e+06  7.73398e+05  2.49258e-02  1.00000e+00 -1.26424e+02  0.00000e+00  3.84388e-01 
 4.60371e-03  6.13858e-04  0.00000e+00  3.47944e+00  6.99016e-05  3.59355e+02  3.60052e+02  4.43939e+00  4.45071e+00  2.62746e-02  9.40982e+01  4.98559e+02  5.75768e-04 -3.73591e+05  2.64543e+03  0.00000e+00 -3.70945e+05  7.22573e+05  3.51628e+05  2.62654e-02  1.00000e+00 -9.43722e+01  0.00000e+00  3.92369e-01 
 4.64138e-03  8.51483e-04  0.00000e+00  3.47944e+00  8.29240e-05  3.59361e+02  3.60052e+02  4.43758e+00  4.45175e+00  2.81067e-02  7.96238e+01  4.20265e+02  3.49156e-01 -3.01323e+05  2.23017e+03  0.00000e+00 -2.99092e+05  4.81791e+05  1.82698e+05  2.80991e-02  1.00000e+00 -7.98578e+01  0.00000e+00  4.04384e-01 
 4.69084e-03  1.08931e-03  0.00000e+00  3.47944e+00  9.45864e-05  3.59370e+02  3.60052e+02  4.43506e+00  4.45176e+00  3.04363e-02  7.18220e+01  3.68447e+02  1.53778e+01 -2.63742e+05  1.95539e+03  0.00000e+00 -2.61771e+05  3.51834e+05  9.00629e+04  3.04300e-02  1.00000e+00 -7.20358e+01  0.00000e+00  4.20669e-01 
 4.75174e-03  1.32727e-03  1.05001e-20  3.47944e+00  1.05404e-04  3.59381e+02  3.60052e+02  4.43184e+00  4.45085e+00  3.32942e-02  6.73391e+01  3.30633e+02  1.90528e+02 -2.43275e+05  1.75479e+03  0.00000e+00 -2.41329e+05  2.70626e+05  2.92971e+04  3.32873e-02  1.00000e+00 -6.75431e+01  0.00000e+00  4.41525e-01 
 4.82366e-03  1.56534e-03  0.00000e+00  3.47944e+00  1.15594e-04  3.59396e+02  3.60052e+02  4.42790e+00  4.44904e+00  3.67205e-02  6.48385e+01  3.01486e+02  1.13945e+03 -2.33107e+05  1.60006e+03  0.00000e+00 -2.30368e+05  2.15460e+05 -1.49075e+04  3.67115e-02  1.00000e+00 -6.50393e+01  0.00000e+00  4.67457e-01 
 4.90611e-03  1.80349e-03  8.81027e-21  3.47944e+00  1.25204e-04  3.59414e+02  3.60052e+02  4.42320e+00  4.44632e+00  4.07681e-02  6.36814e+01  2.78346e+02  4.26358e+03 -2.30240e+05  1.47712e+03  0.00000e+00 -2.24500e+05  1.75997e+05 -4.85030e+04  4.07570e-02  1.00000e+00 -6.38840e+01  0.00000e+00  4.99000e-01 
 4.99859e-03  2.04170e-03  0.00000e+00  3.47944e+00  1.34183e-04  3.59434e+02  3.60052e+02  4.41771e+00  4.44262e+00  4.54866e-02  6.35382e+01  2.59720e+02  1.15498e+04 -2.33279e+05  1.37802e+03  0.00000e+00 -2.20351e+05  1.46869e+05 -7.34824e+04  4.54743e-02  1.00000e+00 -6.37468e+01  0.00000e+00  5.36894e-01 
 5.10055e-03  2.27996e-03  7.58893e-21  3.47944e+00  1.42448e-04  3.59457e+02  3.60052e+02  4.41137e+00  4.43787e+00  5.09486e-02  6.42277e+01  2.44651e+02  2.48413e+04 -2.41718e+05  1.29767e+03  0.00000e+00 -2.15579e+05  1.24867e+05 -9.07117e+04  5.09368e-02  1.00000e+00 -6.44466e+01  0.00000e+00  5.82030e-01 
 5.21143e-03  2.51826e-03  7.09702e-21  3.47944e+00  1.49940e-04  3.59482e+02  3.60052e+02  4.40412e+00  4.43200e+00  5.72131e-02  6.56042e+01  2.32427e+02  4.52069e+04 -2.55349e+05  1.23228e+03  0.00000e+00 -2.08910e+05  1.07915e+05 -1.00995e+05  5.72025e-02  1.00000e+00 -6.58375e+01  0.00000e+00  6.35484e-01 
 5.33068e-03  2.75659e-03  1.33300e-20  3.47944e+00  1.56665e-04  3.59510e+02  3.60052e+02  4.39588e+00  4.42494e+00  6.43444e-02  6.73691e+01  2.22450e+02  7.28656e+04 -2.74139e+05  1.17865e+03  0.00000e+00 -2.00095e+05  9.43186e+04 -1.05777e+05  6.43350e-02  1.00000e+00 -6.76203e+01  0.00000e+00  6.98508e-01 
 5.45775e-03  2.99495e-03  1.25651e-20  3.47944e+00  1.62705e-04  3.59539e+02  3.60052e+02  4.38654e+00  4.41659e+00  7.24095e-02  6.89614e+01  2.14192e+02  1.07510e+05 -2.98110e+05  1.13394e+03  0.00000e+00 -1.89465e+05  8.26258e+04 -1.06839e+05  7.23992e-02  1.00000e+00 -6.92326e+01  0.00000e+00  7.72603e-01 
 5.59212e-03  3.23333e-03  0.00000e+00  3.47944e+00  1.68180e-04  3.59569e+02  3.60052e+02  4.37598e+00  4.40688e+00  8.14706e-02  7.06490e+01  2.07220e+02  1.48646e+05 -3.27333e+05  1.09565e+03  0.00000e+00 -1.77591e+05  7.28020e+04 -1.04789e+05  8.14584e-02  1.00000e+00 -7.09438e+01  0.00000e+00  8.59742e-01 
 5.73326e-03  3.47172e-03  0.00000e+00  3.47944e+00  1.73243e-04  3.59600e+02  3.60052e+02  4.36403e+00  4.39568e+00  9.15066e-02  7.21885e+01  2.01163e+02  1.95487e+05 -3.61431e+05  1.06207e+03  0.00000e+00 -1.64882e+05  6.43149e+04 -1.00567e+05  9.14886e-02  1.00000e+00 -7.25097e+01  0.00000e+00  9.61638e-01 
 5.88069e-03  3.71014e-03 -5.35987e-21  3.47944e+00  1.78068e-04  3.59631e+02  3.60052e+02  4.35052e+00  4.38277e+00  1.02508e-01  7.33578e+01  1.95713e+02  2.47233e+05 -4.00030e+05  1.03139e+03  0.00000e+00 -1.51765e+05  5.67828e+04 -9.49823e+04  1.02483e-01  1.00000e+00 -7.37080e+01  0.00000e+00  1.08058e+00 
 6.03395e-03  3.94857e-03  5.10973e-21  3.47944e+00  1.82830e-04  3.59663e+02  3.60052e+02  4.33523e+00  4.36799e+00  1.14502e-01  7.40157e+01  1.90616e+02  3.02981e+05 -4.42779e+05  1.00247e+03  0.00000e+00 -1.38796e+05  4.99750e+04 -8.88211e+04  1.14470e-01  1.00000e+00 -7.43968e+01  0.00000e+00  1.21942e+00 
 6.19261e-03  4.18701e-03  0.00000e+00  3.47944e+00  1.87691e-04  3.59695e+02  3.60052e+02  4.31791e+00  4.35110e+00  1.27418e-01  7.39616e+01  1.85679e+02  3.61473e+05 -4.88776e+05  9.74050e+02  0.00000e+00 -1.26329e+05  4.37338e+04 -8.25948e+04  1.27381e-01  1.00000e+00 -7.43749e+01  0.00000e+00  1.38104e+00 
 6.35626e-03  4.42546e-03  0.00000e+00  3.47944e+00  1.92790e-04  3.59726e+02  3.60052e+02  4.29830e+00  4.33188e+00  1.41224e-01  7.31060e+01  1.80768e+02  4.21221e+05 -5.37163e+05  9.45414e+02  0.00000e+00 -1.14996e+05  3.79883e+04 -7.70079e+04  1.41188e-01  1.00000e+00 -7.35518e+01  0.00000e+00  1.56869e+00 
 6.52453e-03  4.66392e-03 -8.96437e-21  3.47944e+00  1.98229e-04  3.59756e+02  3.60052e+02  4.27610e+00  4.31006e+00  1.55774e-01  7.13499e+01  1.75809e+02  4.80749e+05 -5.86644e+05  9.15959e+02  0.00000e+00 -1.04979e+05  3.27082e+04 -7.22704e+04  1.55742e-01  1.00000e+00 -7.18276e+01  0.00000e+00  1.78652e+00 
 6.69707e-03  4.90238e-03  1.72236e-20  3.47944e+00  2.04060e-04  3.59785e+02  3.60052e+02  4.25099e+00  4.28534e+00  1.70862e-01  6.86704e+01  1.70785e+02  5.38120e+05 -6.35622e+05  8.85911e+02  0.00000e+00 -9.66169e+04  2.78978e+04 -6.87190e+04  1.70835e-01  1.00000e+00 -6.91784e+01  0.00000e+00  2.03720e+00 
 6.87356e-03  5.14086e-03  8.28595e-21  3.47944e+00  2.10274e-04  3.59813e+02  3.60052e+02  4.22271e+00  4.25745e+00  1.86210e-01  6.50976e+01  1.65739e+02  5.92139e+05 -6.82698e+05  8.55123e+02  0.00000e+00 -8.97034e+04  2.35676e+04 -6.61358e+04  1.86190e-01  1.00000e+00 -6.56333e+01  0.00000e+00  2.32503e+00 
 7.05370e-03  5.37934e-03 -1.59677e-20  3.47944e+00  2.16808e-04  3.59840e+02  3.60052e+02  4.19101e+00  4.22615e+00  2.01634e-01  6.07904e+01  1.60744e+02  6.41691e+05 -7.27007e+05  8.24378e+02  0.00000e+00 -8.44917e+04  1.97306e+04 -6.47611e+04  2.01621e-01  1.00000e+00 -6.13509e+01  0.00000e+00  2.65324e+00 
 7.23722e-03  5.61783e-03  0.00000e+00  3.47944e+00  2.23528e-04  3.59865e+02  3.60052e+02  4.15574e+00  4.19126e+00  2.16943e-01  5.59083e+01  1.55911e+02  6.86667e+05 -7.68369e+05  7.93913e+02  0.00000e+00 -8.09087e+04  1.63772e+04 -6.45315e+04  2.16935e-01  1.00000e+00 -5.64905e+01  0.00000e+00  3.02728e+00 
 7.42387e-03  5.85632e-03  0.00000e+00  3.47944e+00  2.30249e-04  3.59889e+02  3.60052e+02  4.11674e+00  4.15261e+00  2.31936e-01  5.06447e+01  1.51361e+02  7.27242e+05 -8.06911e+05  7.64640e+02  0.00000e+00 -7.89045e+04  1.34901e+04 -6.54144e+04  2.31937e-01  1.00000e+00 -5.12461e+01  0.00000e+00  3.45139e+00 
 7.61342e-03  6.09482e-03  0.00000e+00  3.47944e+00  2.36717e-04  3.59912e+02  3.60052e+02  4.07399e+00  4.11014e+00  2.46456e-01  4.51572e+01  1.47226e+02  7.64685e+05 -8.43681e+05  7.36908e+02  0.00000e+00 -7.82591e+04  1.10300e+04 -6.72292e+04  2.46463e-01  1.00000e+00 -4.57759e+01  0.00000e+00  3.93364e+00 
 7.80566e-03  6.33332e-03  0.00000e+00  3.47944e+00  2.42668e-04  3.59934e+02  3.60053e+02  4.02728e+00  4.06363e+00  2.60414e-01  3.95903e+01  1.43616e+02  8.00309e+05 -8.80101e+05  7.11560e+02  0.00000e+00 -7.90802e+04  8.94780e+03 -7.01324e+04  2.60429e-01  1.00000e+00 -4.02255e+01  0.00000e+00  4.48132e+00 
 8.00039e-03  6.57182e-03  0.00000e+00  3.47944e+00  2.47791e-04  3.59954e+02  3.60053e+02  3.97657e+00  4.01295e+00  2.73737e-01  3.40228e+01  1.40647e+02  8.36631e+05 -9.18482e+05  6.88782e+02  0.00000e+00 -8.11615e+04  7.18581e+03 -7.39757e+04  2.73757e-01  1.00000e+00 -3.46747e+01  0.00000e+00  5.11022e+00 
 8.19744e-03  6.81033e-03  1.31016e-20  3.47944e+00  2.51820e-04  3.59974e+02  3.60053e+02  3.92128e+00  3.95753e+00  2.86457e-01  2.84845e+01  1.38397e+02  8.75619e+05 -9.61218e+05  6.69140e+02  0.00000e+00 -8.49293e+04  5.68123e+03 -7.92481e+04  2.86478e-01  1.00000e+00 -2.91550e+01  0.00000e+00  5.83472e+00 
 8.39664e-03  7.04884e-03  0.00000e+00  3.47944e+00  2.54443e-04  3.59993e+02  3.60053e+02  3.86135e+00  3.89721e+00  2.98537e-01  2.29397e+01  1.36971e+02  9.20932e+05 -1.01176e+06  6.52598e+02  0.00000e+00 -9.01771e+04  4.37317e+03 -8.58039e+04  2.98552e-01  1.00000e+00 -2.36317e+01  0.00000e+00  6.68676e+00 
 8.59784e-03  7.28736e-03  0.00000e+00  3.47944e+00  2.55451e-04  3.60011e+02  3.60053e+02  3.79518e+00  3.83042e+00  3.10087e-01  1.72841e+01  1.36431e+02  9.75186e+05 -1.07363e+06  6.39499e+02  0.00000e+00 -9.78082e+04  3.19486e+03 -9.46133e+04  3.10089e-01  1.00000e+00 -1.80024e+01  0.00000e+00  7.69615e+00 
 8.80092e-03  7.52587e-03  0.00000e+00  3.47944e+00  2.54554e-04  3.60029e+02  3.60054e+02  3.72338e+00  3.75766e+00  3.21161e-01  1.13414e+01  1.36913e+02  1.04383e+06 -1.15272e+06  6.29860e+02  0.00000e+00 -1.08260e+05  2.07946e+03 -1.06181e+05  3.21150e-01  1.00000e+00 -1.20927e+01  0.00000e+00  8.92888e+00 
 9.00573e-03  7.76439e-03 -1.17014e-20  3.47944e+00  2.51591e-04  3.60047e+02  3.60054e+02  3.64126e+00  3.67429e+00  3.31911e-01  4.80209e+00  1.38526e+02  1.13170e+06 -1.25557e+06  6.23437e+02  0.00000e+00 -1.23240e+05  9.41969e+02 -1.22298e+05  3.31888e-01  1.00000e+00 -5.59506e+00  0.00000e+00  1.04565e+01 
 9.21216e-03  8.00291e-03  0.00000e+00  3.47944e+00  2.46244e-04  3.60066e+02  3.60054e+02  3.55287e+00  3.58430e+00  3.42369e-01 -6.22439e+00  1.41535e+02  1.25051e+06 -1.39451e+06  6.20662e+02  0.00000e+00 -1.43386e+05 -7.37768e+02 -1.44123e+05  3.42331e-01  1.00000e+00  4.42388e+00  0.00000e+00  1.24503e+01 
 9.42012e-03  8.24144e-03  0.00000e+00  3.47944e+00  2.38371e-04  3.60087e+02  3.60055e+02  3.44419e+00  3.47368e+00  3.52795e-01 -2.76172e+01  1.46211e+02  1.41114e+06 -1.58539e+06  6.21440e+02  0.00000e+00 -1.73627e+05 -4.29275e+03 -1.77920e+05  3.52750e-01  1.00000e+00  2.56757e+01  0.00000e+00  1.50889e+01 
 9.62949e-03  8.47996e-03  0.00000e+00  3.47944e+00  2.27354e-04  3.60112e+02  3.60055e+02  3.32653e+00  3.35320e+00  3.63118e-01 -5.86311e+01  1.53297e+02  1.64778e+06 -1.86453e+06  6.28278e+02  0.00000e+00 -2.16120e+05 -9.62246e+03 -2.25743e+05  3.63067e-01  1.00000e+00  5.64989e+01  0.00000e+00  1.89129e+01 
 9.84019e-03  8.71849e-03  0.00000e+00  3.47944e+00  2.12867e-04  3.60146e+02  3.60055e+02  3.16545e+00  3.18969e+00  3.73436e-01 -1.11394e+02  1.63731e+02  2.00511e+06 -2.28917e+06  6.38636e+02  0.00000e+00 -2.83417e+05 -1.92802e+04 -3.02697e+05  3.73379e-01  1.00000e+00  1.09001e+02  0.00000e+00  2.46341e+01 
 1.00521e-02  8.95702e-03  0.00000e+00  3.47944e+00  1.93881e-04  3.60205e+02  3.60056e+02  2.99190e+00  3.01418e+00  3.83876e-01 -2.21890e+02  1.79766e+02  2.63966e+06 -3.01291e+06  6.56081e+02  0.00000e+00 -3.72591e+05 -4.13951e+04 -4.13987e+05  3.83810e-01  1.00000e+00  2.19108e+02  0.00000e+00  3.51948e+01 
 1.02653e-02  9.19555e-03  0.00000e+00  3.47944e+00  1.70177e-04  3.60333e+02  3.60057e+02  2.69935e+00  2.71874e+00  3.94867e-01 -5.26595e+02  2.04809e+02  3.90619e+06 -4.36249e+06  6.68954e+02  0.00000e+00 -4.55636e+05 -1.09486e+05 -5.65122e+05  3.94790e-01  1.00000e+00  5.23217e+02  0.00000e+00  5.85074e+01 
 1.04795e-02  9.43408e-03  0.00000e+00  3.47944e+00  1.42022e-04  3.60772e+02  3.60058e+02  2.25508e+00  2.26802e+00  4.09575e-01 -5.12289e+03  2.45415e+02  7.37768e+06 -7.21411e+06  6.93541e+02  2.31291e+06  2.47717e+06 -2.53226e+06 -5.50906e+04  4.09510e-01  1.00000e+00  5.11852e+03  3.24096e+03  1.47918e+02 
