# Code_Saturne plot output (1D profile)
#
# Iteration output: 4506
# Time output:      2.30003e+01
#
#COLUMN_TITLES: Distance | X | Y | Z | diameter_Field2 | temp_Field1 | temp_Field2 | Velocity_Field1[Z] | Velocity_Field2[Z] | vol_f_Field2 | mass_trans_Field1 | Xd_Field2 | BK | COAL | COMP | NUCL | W1 | MT | SMBR | ALPBB | CONDNUM | GAMA | GAMANUC | epsilon_Field1
 4.56474e-03  1.39645e-04  0.00000e+00  3.47944e+00  3.11123e-04  3.59906e+02  3.60056e+02  5.08802e+00  5.15775e+00  1.87762e-01  2.38659e+01  1.11984e+02  2.98412e+05 -6.78906e+05  8.16815e+02  0.00000e+00 -3.79677e+05  8.16181e+03 -3.71515e+05  1.87765e-01  1.00000e+00 -2.38635e+01  0.00000e+00  1.13068e+00 
 4.57812e-03  3.76525e-04  4.25872e-21  3.47944e+00  3.40190e-04  3.59906e+02  3.60056e+02  5.08626e+00  5.16346e+00  1.88814e-01  2.12501e+01  1.02415e+02  2.85542e+05 -5.82984e+05  7.47660e+02  0.00000e+00 -2.96694e+05  6.60934e+03 -2.90085e+05  1.88817e-01  1.00000e+00 -2.12480e+01  0.00000e+00  1.14352e+00 
 4.60371e-03  6.13858e-04  0.00000e+00  3.47944e+00  3.59552e-04  3.59907e+02  3.60056e+02  5.08355e+00  5.16549e+00  1.90487e-01  1.98075e+01  9.69000e+01  2.78542e+05 -5.34857e+05  7.07819e+02  0.00000e+00 -2.55607e+05  5.77772e+03 -2.49829e+05  1.90490e-01  1.00000e+00 -1.98056e+01  0.00000e+00  1.16831e+00 
 4.64138e-03  8.51483e-04  0.00000e+00  3.47944e+00  3.75818e-04  3.59909e+02  3.60056e+02  5.07967e+00  5.16534e+00  1.92836e-01  1.87439e+01  9.27062e+01  2.74318e+05 -5.03343e+05  6.77397e+02  0.00000e+00 -2.28347e+05  5.16715e+03 -2.23180e+05  1.92839e-01  1.00000e+00 -1.87420e+01  0.00000e+00  1.20541e+00 
 4.69084e-03  1.08931e-03  0.00000e+00  3.47944e+00  3.91986e-04  3.59911e+02  3.60056e+02  5.07451e+00  5.16368e+00  1.95930e-01  1.77890e+01  8.88823e+01  2.70996e+05 -4.77960e+05  6.49515e+02  0.00000e+00 -2.06314e+05  4.62742e+03 -2.01687e+05  1.95932e-01  1.00000e+00 -1.77872e+01  0.00000e+00  1.25510e+00 
 4.75174e-03  1.32727e-03  1.05001e-20  3.47944e+00  4.09287e-04  3.59914e+02  3.60056e+02  5.06814e+00  5.16008e+00  1.99691e-01  1.67924e+01  8.51252e+01  2.67680e+05 -4.54787e+05  6.22117e+02  0.00000e+00 -1.86485e+05  4.10473e+03 -1.82380e+05  1.99692e-01  1.00000e+00 -1.67906e+01  0.00000e+00  1.31805e+00 
 4.82366e-03  1.56534e-03  0.00000e+00  3.47944e+00  4.28283e-04  3.59918e+02  3.60056e+02  5.06057e+00  5.15342e+00  2.04117e-01  1.57192e+01  8.13494e+01  2.63811e+05 -4.32334e+05  5.94381e+02  0.00000e+00 -1.67929e+05  3.59237e+03 -1.64336e+05  2.04118e-01  1.00000e+00 -1.57176e+01  0.00000e+00  1.39489e+00 
 4.90611e-03  1.80349e-03  8.81027e-21  3.47944e+00  4.49103e-04  3.59922e+02  3.60056e+02  5.05159e+00  5.14431e+00  2.09157e-01  1.46283e+01  7.75783e+01  2.59171e+05 -4.10135e+05  5.66379e+02  0.00000e+00 -1.50398e+05  3.11127e+03 -1.47287e+05  2.09157e-01  1.00000e+00 -1.46267e+01  0.00000e+00  1.48649e+00 
 4.99859e-03  2.04170e-03  0.00000e+00  3.47944e+00  4.71624e-04  3.59927e+02  3.60056e+02  5.04109e+00  5.13314e+00  2.14818e-01  1.35430e+01  7.38738e+01  2.53746e+05 -3.88321e+05  5.38688e+02  0.00000e+00 -1.34035e+05  2.67060e+03 -1.31365e+05  2.14818e-01  1.00000e+00 -1.35414e+01  0.00000e+00  1.59391e+00 
 5.10055e-03  2.27996e-03  7.58893e-21  3.47944e+00  4.95441e-04  3.59933e+02  3.60056e+02  5.02896e+00  5.12008e+00  2.20994e-01  1.24828e+01  7.03225e+01  2.47793e+05 -3.67151e+05  5.11994e+02  0.00000e+00 -1.18846e+05  2.27767e+03 -1.16568e+05  2.20993e-01  1.00000e+00 -1.24813e+01  0.00000e+00  1.71861e+00 
 5.21143e-03  2.51826e-03  7.09702e-21  3.47944e+00  5.19961e-04  3.59939e+02  3.60056e+02  5.01508e+00  5.10514e+00  2.27683e-01  1.14703e+01  6.70064e+01  2.41654e+05 -3.47234e+05  4.86953e+02  0.00000e+00 -1.05093e+05  1.93565e+03 -1.03157e+05  2.27684e-01  1.00000e+00 -1.14689e+01  0.00000e+00  1.86189e+00 
 5.33068e-03  2.75659e-03  1.33300e-20  3.47944e+00  5.44385e-04  3.59946e+02  3.60056e+02  4.99935e+00  5.08827e+00  2.34743e-01  1.05149e+01  6.40002e+01  2.35803e+05 -3.28957e+05  4.64064e+02  0.00000e+00 -9.26899e+04  1.64384e+03 -9.10460e+04  2.34744e-01  1.00000e+00 -1.05135e+01  0.00000e+00  2.02552e+00 
 5.45775e-03  2.99495e-03  1.25651e-20  3.47944e+00  5.67861e-04  3.59953e+02  3.60056e+02  4.98166e+00  5.06941e+00  2.42169e-01  9.62513e+00  6.13544e+01  2.30636e+05 -3.12859e+05  4.43758e+02  0.00000e+00 -8.17800e+04  1.39830e+03 -8.03817e+04  2.42169e-01  1.00000e+00 -9.62380e+00  0.00000e+00  2.21095e+00 
 5.59212e-03  3.23333e-03  0.00000e+00  3.47944e+00  5.89515e-04  3.59961e+02  3.60056e+02  4.96191e+00  5.04845e+00  2.49835e-01  8.79784e+00  5.91009e+01  2.26561e+05 -2.99257e+05  4.26235e+02  0.00000e+00 -7.22696e+04  1.19338e+03 -7.10762e+04  2.49836e-01  1.00000e+00 -8.79654e+00  0.00000e+00  2.42008e+00 
 5.73326e-03  3.47172e-03  0.00000e+00  3.47944e+00  6.08630e-04  3.59970e+02  3.60056e+02  4.93999e+00  5.02530e+00  2.57754e-01  8.02704e+00  5.72448e+01  2.23813e+05 -2.88440e+05  4.11504e+02  0.00000e+00 -6.42160e+04  1.02222e+03 -6.31938e+04  2.57754e-01  1.00000e+00 -8.02576e+00  0.00000e+00  2.65450e+00 
 5.88069e-03  3.71014e-03 -5.35987e-21  3.47944e+00  6.24648e-04  3.59979e+02  3.60056e+02  4.91584e+00  4.99990e+00  2.65785e-01  7.29724e+00  5.57770e+01  2.22629e+05 -2.80435e+05  3.99398e+02  0.00000e+00 -5.74073e+04  8.78079e+02 -5.65293e+04  2.65786e-01  1.00000e+00 -7.29595e+00  0.00000e+00  2.91702e+00 
 6.03395e-03  3.94857e-03  5.10973e-21  3.47944e+00  6.37286e-04  3.59988e+02  3.60056e+02  4.88939e+00  4.97222e+00  2.73922e-01  6.59283e+00  5.46709e+01  2.23028e+05 -2.75248e+05  3.89800e+02  0.00000e+00 -5.18306e+04  7.54470e+02 -5.10761e+04  2.73924e-01  1.00000e+00 -6.59154e+00  0.00000e+00  3.20873e+00 
 6.19261e-03  4.18701e-03  0.00000e+00  3.47944e+00  6.46435e-04  3.59998e+02  3.60056e+02  4.86058e+00  4.94217e+00  2.81995e-01  5.89256e+00  5.38973e+01  2.25114e+05 -2.72697e+05  3.82384e+02  0.00000e+00 -4.72000e+04  6.45743e+02 -4.65543e+04  2.81997e-01  1.00000e+00 -5.89126e+00  0.00000e+00  3.53302e+00 
 6.35626e-03  4.42546e-03  0.00000e+00  3.47944e+00  6.52233e-04  3.60008e+02  3.60056e+02  4.82926e+00  4.90964e+00  2.90055e-01  5.17978e+00  5.34183e+01  2.28807e+05 -2.72707e+05  3.76978e+02  0.00000e+00 -4.35231e+04  5.46937e+02 -4.29762e+04  2.90056e-01  1.00000e+00 -5.17845e+00  0.00000e+00  3.89200e+00 
 6.52453e-03  4.66392e-03 -8.96437e-21  3.47944e+00  6.54870e-04  3.60019e+02  3.60056e+02  4.79547e+00  4.87464e+00  2.98015e-01  4.43431e+00  5.32034e+01  2.34140e+05 -2.75128e+05  3.73246e+02  0.00000e+00 -4.06152e+04  4.53861e+02 -4.01614e+04  2.98016e-01  1.00000e+00 -4.43294e+00  0.00000e+00  4.29003e+00 
 6.69707e-03  4.90238e-03  1.72236e-20  3.47944e+00  6.54660e-04  3.60030e+02  3.60056e+02  4.75902e+00  4.83702e+00  3.05883e-01  3.63879e+00  5.32206e+01  2.41054e+05 -2.79855e+05  3.70978e+02  0.00000e+00 -3.84293e+04  3.62946e+02 -3.80664e+04  3.05884e-01  1.00000e+00 -3.63738e+00  0.00000e+00  4.73034e+00 
 6.87356e-03  5.14086e-03  8.28595e-21  3.47944e+00  6.51856e-04  3.60041e+02  3.60056e+02  4.71986e+00  4.79668e+00  3.13576e-01  2.77437e+00  5.34498e+01  2.49644e+05 -2.86818e+05  3.69956e+02  0.00000e+00 -3.68033e+04  2.71062e+02 -3.65322e+04  3.13577e-01  1.00000e+00 -2.77291e+00  0.00000e+00  5.21924e+00 
 7.05370e-03  5.37934e-03 -1.59677e-20  3.47944e+00  6.46790e-04  3.60053e+02  3.60056e+02  4.67778e+00  4.75348e+00  3.21155e-01  1.82363e+00  5.38686e+01  2.59883e+05 -2.96032e+05  3.70021e+02  0.00000e+00 -3.57788e+04  1.75278e+02 -3.56035e+04  3.21155e-01  1.00000e+00 -1.82211e+00  0.00000e+00  5.76142e+00 
 7.23722e-03  5.61783e-03  0.00000e+00  3.47944e+00  6.39642e-04  3.60064e+02  3.60057e+02  4.63277e+00  4.70735e+00  3.28504e-01  7.67182e-01  5.44708e+01  2.72014e+05 -3.07548e+05  3.71017e+02  0.00000e+00 -3.51626e+04  7.28029e+01 -3.50898e+04  3.28505e-01  1.00000e+00 -7.65588e-01  0.00000e+00  6.36740e+00 
 7.42387e-03  5.85632e-03  0.00000e+00  3.47944e+00  6.30716e-04  3.60076e+02  3.60057e+02  4.58436e+00  4.65787e+00  3.35754e-01 -1.03783e+00  5.52419e+01  2.86043e+05 -3.21531e+05  3.72862e+02  0.00000e+00 -3.51152e+04 -9.82863e+01 -3.52134e+04  3.35754e-01  1.00000e+00  1.04163e+00  0.00000e+00  7.04399e+00 
 7.61342e-03  6.09482e-03  0.00000e+00  3.47944e+00  6.20089e-04  3.60088e+02  3.60057e+02  4.53267e+00  4.60512e+00  3.42750e-01 -4.10582e+00  5.61890e+01  3.02432e+05 -3.38170e+05  3.75455e+02  0.00000e+00 -3.53628e+04 -3.86390e+02 -3.57492e+04  3.42750e-01  1.00000e+00  4.10982e+00  0.00000e+00  7.80929e+00 
 7.80566e-03  6.33332e-03  0.00000e+00  3.47944e+00  6.07982e-04  3.60101e+02  3.60057e+02  4.47674e+00  4.54819e+00  3.49673e-01 -7.61528e+00  5.73082e+01  3.21280e+05 -3.57891e+05  3.78775e+02  0.00000e+00 -3.62323e+04 -7.16161e+02 -3.69484e+04  3.49673e-01  1.00000e+00  7.61950e+00  0.00000e+00  8.67376e+00 
 8.00039e-03  6.57182e-03  0.00000e+00  3.47944e+00  5.94277e-04  3.60114e+02  3.60057e+02  4.41723e+00  4.48767e+00  3.56352e-01 -1.16835e+01  5.86300e+01  3.43461e+05 -3.81296e+05  3.82857e+02  0.00000e+00 -3.74522e+04 -1.10283e+03 -3.85550e+04  3.56352e-01  1.00000e+00  1.16879e+01  0.00000e+00  9.66956e+00 
 8.19744e-03  6.81033e-03  1.31016e-20  3.47944e+00  5.79138e-04  3.60128e+02  3.60058e+02  4.35177e+00  4.42126e+00  3.62972e-01 -1.64792e+01  6.01631e+01  3.69316e+05 -4.09190e+05  3.87631e+02  0.00000e+00 -3.94861e+04 -1.56692e+03 -4.10530e+04  3.62973e-01  1.00000e+00  1.64840e+01  0.00000e+00  1.08163e+01 
 8.39664e-03  7.04884e-03  0.00000e+00  3.47944e+00  5.62295e-04  3.60143e+02  3.60058e+02  4.28282e+00  4.35138e+00  3.69389e-01 -2.22433e+01  6.19655e+01  4.00359e+05 -4.42921e+05  3.93526e+02  0.00000e+00 -4.21680e+04 -2.14037e+03 -4.43084e+04  3.69392e-01  1.00000e+00  2.22484e+01  0.00000e+00  1.21715e+01 
 8.59784e-03  7.28736e-03  0.00000e+00  3.47944e+00  5.43887e-04  3.60159e+02  3.60058e+02  4.20397e+00  4.27165e+00  3.75862e-01 -2.93315e+01  6.40632e+01  4.37396e+05 -4.84117e+05  4.00004e+02  0.00000e+00 -4.63203e+04 -2.86761e+03 -4.91879e+04  3.75867e-01  1.00000e+00  2.93370e+01  0.00000e+00  1.37756e+01 
 8.80092e-03  7.52587e-03  0.00000e+00  3.47944e+00  5.23405e-04  3.60177e+02  3.60059e+02  4.12351e+00  4.19037e+00  3.82136e-01 -3.83126e+01  6.65706e+01  4.83764e+05 -5.35479e+05  4.07718e+02  0.00000e+00 -5.13074e+04 -3.82821e+03 -5.51356e+04  3.82142e-01  1.00000e+00  3.83185e+01  0.00000e+00  1.57644e+01 
 9.00573e-03  7.76439e-03 -1.17014e-20  3.47944e+00  5.01014e-04  3.60197e+02  3.60059e+02  4.02365e+00  4.08973e+00  3.88581e-01 -5.00595e+01  6.95463e+01  5.41027e+05 -6.00956e+05  4.16453e+02  0.00000e+00 -5.95129e+04 -5.13874e+03 -6.46516e+04  3.88587e-01  1.00000e+00  5.00659e+01  0.00000e+00  1.81972e+01 
 9.21216e-03  8.00291e-03  0.00000e+00  3.47944e+00  4.75764e-04  3.60222e+02  3.60059e+02  3.92861e+00  3.99376e+00  3.94982e-01 -6.61860e+01  7.32379e+01  6.17420e+05 -6.87342e+05  4.27563e+02  0.00000e+00 -6.94944e+04 -7.03870e+03 -7.65331e+04  3.94989e-01  1.00000e+00  6.61930e+01  0.00000e+00  2.14466e+01 
 9.42012e-03  8.24144e-03  0.00000e+00  3.47944e+00  4.47838e-04  3.60254e+02  3.60060e+02  3.78977e+00  3.85326e+00  4.01642e-01 -8.93608e+01  7.78056e+01  7.17817e+05 -8.05610e+05  4.40269e+02  0.00000e+00 -8.73527e+04 -9.92837e+03 -9.72811e+04  4.01648e-01  1.00000e+00  8.93686e+01  0.00000e+00  2.56493e+01 
 9.62949e-03  8.47996e-03  0.00000e+00  3.47944e+00  4.15457e-04  3.60296e+02  3.60060e+02  3.67127e+00  3.73230e+00  4.08403e-01 -1.25572e+02  8.38706e+01  8.66518e+05 -9.77657e+05  4.57832e+02  0.00000e+00 -1.10681e+05 -1.47900e+04 -1.25471e+05  4.08409e-01  1.00000e+00  1.25581e+02  0.00000e+00  3.19401e+01 
 9.84019e-03  8.71849e-03  0.00000e+00  3.47944e+00  3.78644e-04  3.60357e+02  3.60061e+02  3.46799e+00  3.52231e+00  4.15504e-01 -1.86766e+02  9.20261e+01  1.09069e+06 -1.24276e+06  4.75901e+02  0.00000e+00 -1.51597e+05 -2.37234e+04 -1.75321e+05  4.15509e-01  1.00000e+00  1.86776e+02  0.00000e+00  4.13834e+01 
 1.00521e-02  8.95702e-03  0.00000e+00  3.47944e+00  3.34451e-04  3.60458e+02  3.60062e+02  3.28537e+00  3.33306e+00  4.22888e-01 -3.09699e+02  1.04187e+02  1.49507e+06 -1.69618e+06  5.05471e+02  0.00000e+00 -2.00605e+05 -4.37591e+04 -2.44364e+05  4.22895e-01  1.00000e+00  3.09712e+02  0.00000e+00  5.91761e+01 
 1.02653e-02  9.19555e-03  0.00000e+00  3.47944e+00  2.83707e-04  3.60658e+02  3.60063e+02  2.92050e+00  2.96119e+00  4.31393e-01 -6.13538e+02  1.22824e+02  2.30293e+06 -2.51770e+06  5.25649e+02  0.00000e+00 -2.14237e+05 -1.00179e+05 -3.14416e+05  4.31399e-01  1.00000e+00  6.13553e+02  0.00000e+00  9.81746e+01 
 1.04795e-02  9.43408e-03  0.00000e+00  3.47944e+00  2.30819e-04  3.61231e+02  3.60064e+02  2.42609e+00  2.45298e+00  4.42439e-01 -5.12223e+03  1.50970e+02  4.40957e+06 -3.52791e+06  5.52058e+02  9.03417e+05  1.78563e+06 -1.77956e+06  6.07386e+03  4.42449e-01  1.00000e+00  5.12226e+03  3.41669e+03  2.49251e+02 
