# Code_Saturne plot output (1D profile)
#
# Iteration output: 4542
# Time output:      2.30010e+01
#
#COLUMN_TITLES: Distance | X | Y | Z | diameter_Field2 | temp_Field1 | temp_Field2 | Velocity_Field1[Z] | Velocity_Field2[Z] | vol_f_Field2 | mass_trans_Field1 | Xd_Field2 | BK | COAL | COMP | NUCL | W1 | MT | SMBR | ALPBB | CONDNUM | GAMA | GAMANUC | epsilon_Field1
 4.56474e-03  1.39645e-04  0.00000e+00  3.47944e+00  2.81600e-04  3.59200e+02  3.60050e+02  4.70851e+00  4.76853e+00  1.02818e-01  7.60734e+01  1.23755e+02  1.74683e+05 -4.46279e+05  7.75899e+02  0.00000e+00 -2.70821e+05  1.55966e+04 -2.55224e+05  1.02818e-01  1.00000e+00 -7.61730e+01  0.00000e+00  7.98895e-01 
 4.57812e-03  3.76525e-04  4.25872e-21  3.47944e+00  3.00213e-04  3.59201e+02  3.60050e+02  4.70769e+00  4.77218e+00  1.03699e-01  7.04509e+01  1.16082e+02  1.75592e+05 -4.03329e+05  7.27914e+02  0.00000e+00 -2.27010e+05  1.34327e+04 -2.13577e+05  1.03699e-01  1.00000e+00 -7.05433e+01  0.00000e+00  8.07851e-01 
 4.60371e-03  6.13858e-04  0.00000e+00  3.47944e+00  3.18025e-04  3.59204e+02  3.60050e+02  4.70557e+00  4.77417e+00  1.05234e-01  6.61540e+01  1.09580e+02  1.76309e+05 -3.71847e+05  6.87398e+02  0.00000e+00 -1.94850e+05  1.17330e+04 -1.83117e+05  1.05235e-01  1.00000e+00 -6.62411e+01  0.00000e+00  8.25424e-01 
 4.64138e-03  8.51483e-04  0.00000e+00  3.47944e+00  3.36440e-04  3.59209e+02  3.60050e+02  4.70248e+00  4.77519e+00  1.07479e-01  6.25656e+01  1.03582e+02  1.76820e+05 -3.46633e+05  6.49994e+02  0.00000e+00 -1.69163e+05  1.02702e+04 -1.58893e+05  1.07479e-01  1.00000e+00 -6.26484e+01  0.00000e+00  8.51868e-01 
 4.69084e-03  1.08931e-03  0.00000e+00  3.47944e+00  3.56662e-04  3.59215e+02  3.60050e+02  4.69831e+00  4.77542e+00  1.10448e-01  5.92917e+01  9.77094e+01  1.76751e+05 -3.24502e+05  6.13320e+02  0.00000e+00 -1.47137e+05  8.93426e+03 -1.38203e+05  1.10447e-01  1.00000e+00 -5.93707e+01  0.00000e+00  8.87550e-01 
 4.75174e-03  1.32727e-03  1.05001e-20  3.47944e+00  3.79299e-04  3.59223e+02  3.60050e+02  4.69307e+00  4.77484e+00  1.14161e-01  5.61766e+01  9.18781e+01  1.75737e+05 -3.04183e+05  5.76817e+02  0.00000e+00 -1.27869e+05  7.70113e+03 -1.20168e+05  1.14156e-01  1.00000e+00 -5.62522e+01  0.00000e+00  9.32955e-01 
 4.82366e-03  1.56534e-03  0.00000e+00  3.47944e+00  4.04630e-04  3.59232e+02  3.60050e+02  4.68680e+00  4.77198e+00  1.18622e-01  5.28956e+01  8.61261e+01  1.73548e+05 -2.85152e+05  5.40811e+02  0.00000e+00 -1.11064e+05  6.54218e+03 -1.04521e+05  1.18613e-01  1.00000e+00 -5.29677e+01  0.00000e+00  9.88723e-01 
 4.90611e-03  1.80349e-03  8.81027e-21  3.47944e+00  4.32683e-04  3.59244e+02  3.60050e+02  4.67952e+00  4.76487e+00  1.23772e-01  4.93753e+01  8.05422e+01  1.70145e+05 -2.67117e+05  5.05501e+02  0.00000e+00 -9.64668e+04  5.47377e+03 -9.09930e+04  1.23754e-01  1.00000e+00 -4.94435e+01  0.00000e+00  1.05566e+00 
 4.99859e-03  2.04170e-03  0.00000e+00  3.47944e+00  4.63267e-04  3.59257e+02  3.60050e+02  4.67105e+00  4.75568e+00  1.29607e-01  4.60425e+01  7.52251e+01  1.65653e+05 -2.50116e+05  4.71617e+02  0.00000e+00 -8.39919e+04  4.55320e+03 -7.94387e+04  1.29577e-01  1.00000e+00 -4.61071e+01  0.00000e+00  1.13477e+00 
 5.10055e-03  2.27996e-03  7.58893e-21  3.47944e+00  4.95942e-04  3.59272e+02  3.60050e+02  4.66122e+00  4.74494e+00  1.36080e-01  4.29607e+01  7.02689e+01  1.60363e+05 -2.34230e+05  4.39963e+02  0.00000e+00 -7.34272e+04  3.78015e+03 -6.96470e+04  1.36035e-01  1.00000e+00 -4.30221e+01  0.00000e+00  1.22726e+00 
 5.21143e-03  2.51826e-03  7.09702e-21  3.47944e+00  5.30047e-04  3.59289e+02  3.60050e+02  4.64993e+00  4.73267e+00  1.43214e-01  4.01845e+01  6.57476e+01  1.54640e+05 -2.19697e+05  4.10965e+02  0.00000e+00 -6.46461e+04  3.14379e+03 -6.15023e+04  1.43152e-01  1.00000e+00 -4.02433e+01  0.00000e+00  1.33454e+00 
 5.33068e-03  2.75659e-03  1.33300e-20  3.47944e+00  5.64700e-04  3.59308e+02  3.60050e+02  4.63709e+00  4.71879e+00  1.50929e-01  3.77273e+01  6.17131e+01  1.48911e+05 -2.06619e+05  3.84948e+02  0.00000e+00 -5.73229e+04  2.62892e+03 -5.46939e+04  1.50854e-01  1.00000e+00 -3.77839e+01  0.00000e+00  1.45834e+00 
 5.45775e-03  2.99495e-03  1.25651e-20  3.47944e+00  5.98877e-04  3.59329e+02  3.60050e+02  4.62251e+00  4.70316e+00  1.59207e-01  3.56044e+01  5.81912e+01  1.43523e+05 -1.95164e+05  3.62104e+02  0.00000e+00 -5.12796e+04  2.21774e+03 -4.90619e+04  1.59126e-01  1.00000e+00 -3.56592e+01  0.00000e+00  1.59980e+00 
 5.59212e-03  3.23333e-03  0.00000e+00  3.47944e+00  6.31446e-04  3.59351e+02  3.60050e+02  4.60613e+00  4.68568e+00  1.67875e-01  3.37889e+01  5.51899e+01  1.38844e+05 -1.85356e+05  3.42397e+02  0.00000e+00 -4.61699e+04  1.89296e+03 -4.42769e+04  1.67799e-01  1.00000e+00 -3.38425e+01  0.00000e+00  1.76107e+00 
 5.73326e-03  3.47172e-03  0.00000e+00  3.47944e+00  6.61402e-04  3.59375e+02  3.60050e+02  4.58775e+00  4.66620e+00  1.76961e-01  3.22797e+01  5.26903e+01  1.35054e+05 -1.77345e+05  3.25795e+02  0.00000e+00 -4.19652e+04  1.63781e+03 -4.03274e+04  1.76895e-01  1.00000e+00 -3.23328e+01  0.00000e+00  1.94357e+00 
 5.88069e-03  3.71014e-03 -5.35987e-21  3.47944e+00  6.87881e-04  3.59400e+02  3.60050e+02  4.56732e+00  4.64463e+00  1.86307e-01  3.10237e+01  5.06621e+01  1.32321e+05 -1.71069e+05  3.12043e+02  0.00000e+00 -3.84357e+04  1.43755e+03 -3.69981e+04  1.86254e-01  1.00000e+00 -3.10766e+01  0.00000e+00  2.14973e+00 
 6.03395e-03  3.94857e-03  5.10973e-21  3.47944e+00  7.10308e-04  3.59427e+02  3.60050e+02  4.54463e+00  4.62081e+00  1.95909e-01  2.99957e+01  4.90626e+01  1.30673e+05 -1.66549e+05  3.00909e+02  0.00000e+00 -3.55753e+04  1.28006e+03 -3.42952e+04  1.95870e-01  1.00000e+00 -3.00491e+01  0.00000e+00  2.38137e+00 
 6.19261e-03  4.18701e-03  0.00000e+00  3.47944e+00  7.28325e-04  3.59455e+02  3.60050e+02  4.51967e+00  4.59469e+00  2.05620e-01  2.91338e+01  4.78490e+01  1.30145e+05 -1.63674e+05  2.92053e+02  0.00000e+00 -3.32373e+04  1.15527e+03 -3.20821e+04  2.05594e-01  1.00000e+00 -2.91880e+01  0.00000e+00  2.64123e+00 
 6.35626e-03  4.42546e-03  0.00000e+00  3.47944e+00  7.41911e-04  3.59485e+02  3.60050e+02  4.49223e+00  4.56610e+00  2.15425e-01  2.84018e+01  4.69729e+01  1.30687e+05 -1.62394e+05  2.85228e+02  0.00000e+00 -3.14213e+04  1.05534e+03 -3.03659e+04  2.15410e-01  1.00000e+00 -2.84574e+01  0.00000e+00  2.93148e+00 
 6.52453e-03  4.66392e-03 -8.96437e-21  3.47944e+00  7.51134e-04  3.59516e+02  3.60050e+02  4.46230e+00  4.53500e+00  2.25138e-01  2.77353e+01  4.63962e+01  1.32313e+05 -1.62567e+05  2.80100e+02  0.00000e+00 -2.99732e+04  9.74073e+02 -2.89991e+04  2.25133e-01  1.00000e+00 -2.77927e+01  0.00000e+00  3.25574e+00 
 6.69707e-03  4.90238e-03  1.72236e-20  3.47944e+00  7.56295e-04  3.59548e+02  3.60050e+02  4.42968e+00  4.50123e+00  2.34764e-01  2.71003e+01  4.60797e+01  1.34965e+05 -1.64162e+05  2.76455e+02  0.00000e+00 -2.89199e+04  9.06617e+02 -2.80133e+04  2.34766e-01  1.00000e+00 -2.71599e+01  0.00000e+00  3.61677e+00 
 6.87356e-03  5.14086e-03  8.28595e-21  3.47944e+00  7.57646e-04  3.59582e+02  3.60050e+02  4.39437e+00  4.46480e+00  2.44185e-01  2.64444e+01  4.59977e+01  1.38679e+05 -1.67119e+05  2.74029e+02  0.00000e+00 -2.81658e+04  8.49134e+02 -2.73167e+04  2.44191e-01  1.00000e+00 -2.65066e+01  0.00000e+00  4.01999e+00 
 7.05370e-03  5.37934e-03 -1.59677e-20  3.47944e+00  7.55624e-04  3.59616e+02  3.60051e+02  4.35609e+00  4.42547e+00  2.53467e-01  2.57395e+01  4.61210e+01  1.43403e+05 -1.71493e+05  2.72683e+02  0.00000e+00 -2.78179e+04  7.98377e+02 -2.70196e+04  2.53514e-01  1.00000e+00 -2.58047e+01  0.00000e+00  4.46920e+00 
 7.23722e-03  5.61783e-03  0.00000e+00  3.47944e+00  7.50482e-04  3.59651e+02  3.60051e+02  4.31488e+00  4.38324e+00  2.62632e-01  2.49332e+01  4.64371e+01  1.49251e+05 -1.77282e+05  2.72225e+02  0.00000e+00 -2.77589e+04  7.51897e+02 -2.70070e+04  2.62595e-01  1.00000e+00 -2.50018e+01  0.00000e+00  4.97299e+00 
 7.42387e-03  5.85632e-03  0.00000e+00  3.47944e+00  7.42609e-04  3.59688e+02  3.60051e+02  4.27027e+00  4.33767e+00  2.71608e-01  2.39994e+01  4.69296e+01  1.56207e+05 -1.84661e+05  2.72604e+02  0.00000e+00 -2.81820e+04  7.07322e+02 -2.74746e+04  2.71610e-01  1.00000e+00 -2.40720e+01  0.00000e+00  5.53673e+00 
 7.61342e-03  6.09482e-03  0.00000e+00  3.47944e+00  7.32113e-04  3.59726e+02  3.60051e+02  4.22245e+00  4.28886e+00  2.80322e-01  2.28757e+01  4.76026e+01  1.64534e+05 -1.93707e+05  2.73695e+02  0.00000e+00 -2.88991e+04  6.62830e+02 -2.82363e+04  2.80327e-01  1.00000e+00 -2.29528e+01  0.00000e+00  6.17521e+00 
 7.80566e-03  6.33332e-03  0.00000e+00  3.47944e+00  7.19309e-04  3.59764e+02  3.60051e+02  4.17050e+00  4.23596e+00  2.88931e-01  2.15182e+01  4.84502e+01  1.74285e+05 -2.04735e+05  2.75493e+02  0.00000e+00 -3.01745e+04  6.15954e+02 -2.95585e+04  2.88937e-01  1.00000e+00 -2.16002e+01  0.00000e+00  6.89718e+00 
 8.00039e-03  6.57182e-03  0.00000e+00  3.47944e+00  7.04153e-04  3.59805e+02  3.60051e+02  4.11499e+00  4.17949e+00  2.97197e-01  1.98564e+01  4.94932e+01  1.85929e+05 -2.18021e+05  2.77948e+02  0.00000e+00 -3.18141e+04  5.64803e+02 -3.12493e+04  2.97205e-01  1.00000e+00 -1.99440e+01  0.00000e+00  7.72862e+00 
 8.19744e-03  6.81033e-03  1.31016e-20  3.47944e+00  6.86897e-04  3.59846e+02  3.60052e+02  4.05389e+00  4.11751e+00  3.05375e-01  1.78140e+01  5.07368e+01  1.99631e+05 -2.34143e+05  2.81065e+02  0.00000e+00 -3.42316e+04  5.05966e+02 -3.37256e+04  3.05381e-01  1.00000e+00 -1.79080e+01  0.00000e+00  8.68530e+00 
 8.39664e-03  7.04884e-03  0.00000e+00  3.47944e+00  6.67311e-04  3.59889e+02  3.60052e+02  3.98911e+00  4.05186e+00  3.13254e-01  1.52831e+01  5.22263e+01  2.16207e+05 -2.53818e+05  2.85018e+02  0.00000e+00 -3.73268e+04  4.36172e+02 -3.68907e+04  3.13257e-01  1.00000e+00 -1.53843e+01  0.00000e+00  9.81325e+00 
 8.59784e-03  7.28736e-03  0.00000e+00  3.47944e+00  6.45574e-04  3.59935e+02  3.60052e+02  3.91550e+00  3.97743e+00  3.21151e-01  1.21086e+01  5.39851e+01  2.36118e+05 -2.78168e+05  2.89500e+02  0.00000e+00 -4.17610e+04  3.49273e+02 -4.14117e+04  3.21151e-01  1.00000e+00 -1.22183e+01  0.00000e+00  1.11478e+01 
 8.80092e-03  7.52587e-03  0.00000e+00  3.47944e+00  6.21183e-04  3.59983e+02  3.60052e+02  3.83932e+00  3.90051e+00  3.28737e-01  8.07193e+00  5.61052e+01  2.61123e+05 -3.08685e+05  2.94929e+02  0.00000e+00 -4.72668e+04  2.37744e+02 -4.70290e+04  3.28738e-01  1.00000e+00 -8.19156e+00  0.00000e+00  1.27952e+01 
 9.00573e-03  7.76439e-03 -1.17014e-20  3.47944e+00  5.94303e-04  3.60035e+02  3.60053e+02  3.74653e+00  3.80709e+00  3.36506e-01  2.81358e+00  5.86432e+01  2.92163e+05 -3.48108e+05  3.01227e+02  0.00000e+00 -5.56440e+04  8.72778e+01 -5.55567e+04  3.36513e-01  1.00000e+00 -2.94510e+00  0.00000e+00  1.48109e+01 
 9.21216e-03  8.00291e-03  0.00000e+00  3.47944e+00  5.64009e-04  3.60091e+02  3.60053e+02  3.65533e+00  3.71528e+00  3.44083e-01 -9.76333e+00  6.17935e+01  3.33546e+05 -4.00062e+05  3.09271e+02  0.00000e+00 -6.62068e+04 -2.88053e+02 -6.64949e+04  3.44076e-01  1.00000e+00  9.43178e+00  0.00000e+00  1.74835e+01 
 9.42012e-03  8.24144e-03  0.00000e+00  3.47944e+00  5.30391e-04  3.60154e+02  3.60054e+02  3.52994e+00  3.58949e+00  3.52015e-01 -3.23987e+01  6.57107e+01  3.88316e+05 -4.71831e+05  3.18150e+02  0.00000e+00 -8.31974e+04 -1.01666e+03 -8.42140e+04  3.52013e-01  1.00000e+00  3.20264e+01  0.00000e+00  2.09732e+01 
 9.62949e-03  8.47996e-03  0.00000e+00  3.47944e+00  4.91617e-04  3.60229e+02  3.60054e+02  3.41218e+00  3.47037e+00  3.59976e-01 -6.64011e+01  7.08940e+01  4.69022e+05 -5.76019e+05  3.31203e+02  0.00000e+00 -1.06666e+05 -2.20956e+03 -1.08876e+05  3.59974e-01  1.00000e+00  6.59743e+01  0.00000e+00  2.61450e+01 
 9.84019e-03  8.71849e-03  0.00000e+00  3.47944e+00  4.47632e-04  3.60324e+02  3.60055e+02  3.22292e+00  3.28070e+00  3.68423e-01 -1.22268e+02  7.78609e+01  5.89593e+05 -7.38988e+05  3.44906e+02  0.00000e+00 -1.49051e+05 -4.37626e+03 -1.53427e+05  3.68419e-01  1.00000e+00  1.21767e+02  0.00000e+00  3.37439e+01 
 1.00521e-02  8.95702e-03  0.00000e+00  3.47944e+00  3.94735e-04  3.60461e+02  3.60055e+02  3.05213e+00  3.10769e+00  3.77340e-01 -2.29560e+02  8.82956e+01  8.08228e+05 -1.01843e+06  3.66591e+02  0.00000e+00 -2.09836e+05 -9.11024e+03 -2.18946e+05  3.77337e-01  1.00000e+00  2.28944e+02  0.00000e+00  4.81498e+01 
 1.02653e-02  9.19555e-03  0.00000e+00  3.47944e+00  3.33121e-04  3.60699e+02  3.60056e+02  2.71368e+00  2.75988e+00  3.88065e-01 -4.83230e+02  1.04629e+02  1.25266e+06 -1.54012e+06  3.82805e+02  0.00000e+00 -2.87079e+05 -2.21189e+04 -3.09198e+05  3.88056e-01  1.00000e+00  4.82429e+02  0.00000e+00  8.01258e+01 
 1.04795e-02  9.43408e-03  0.00000e+00  3.47944e+00  2.65102e-04  3.61297e+02  3.60057e+02  2.24677e+00  2.27767e+00  4.00951e-01 -4.68888e+03  1.31476e+02  2.35898e+06 -2.50254e+06  4.09381e+02  1.12638e+06  9.83232e+05 -9.87846e+05 -4.61432e+03  4.00943e-01  1.00000e+00  4.68775e+03  3.32299e+03  2.03916e+02 
