# Code_Saturne plot output (1D profile)
#
# Iteration output: 2718
# Time output:      2.30005e+01
#
#COLUMN_TITLES: Distance | X | Y | Z | diameter_Field2 | temp_Field1 | temp_Field2 | Velocity_Field1[Z] | Velocity_Field2[Z] | vol_f_Field2 | mass_trans_Field1 | Xd_Field2 | BK | COAL | COMP | NUCL | W1 | MT | SMBR | ALPBB | CONDNUM | GAMA | GAMANUC | epsilon_Field1
 4.56474e-03  1.39645e-04  0.00000e+00  3.47944e+00  1.70148e-04  3.59997e+02  3.60057e+02  5.15379e+00  5.18966e+00  1.67303e-01  2.05157e+01  2.04763e+02  1.50272e+05 -7.92354e+05  1.50948e+03  0.00000e+00 -6.40572e+05  9.01376e+03 -6.31559e+05  1.67320e-01  1.00000e+00 -2.05396e+01  0.00000e+00  7.54371e-01 
 4.57812e-03  3.76525e-04  4.25872e-21  3.47944e+00  1.96592e-04  3.59998e+02  3.60056e+02  5.15253e+00  5.19530e+00  1.68470e-01  1.69493e+01  1.77219e+02  2.17201e+05 -6.23746e+05  1.30770e+03  0.00000e+00 -4.05237e+05  6.40076e+03 -3.98836e+05  1.68486e-01  1.00000e+00 -1.69694e+01  0.00000e+00  7.64499e-01 
 4.60371e-03  6.13858e-04  0.00000e+00  3.47944e+00  2.13678e-04  3.59999e+02  3.60056e+02  5.15049e+00  5.19765e+00  1.70683e-01  1.52065e+01  1.63049e+02  2.55171e+05 -5.50986e+05  1.20388e+03  0.00000e+00 -2.94610e+05  5.21510e+03 -2.89395e+05  1.70699e-01  1.00000e+00 -1.52248e+01  0.00000e+00  7.84065e-01 
 4.64138e-03  8.51483e-04  0.00000e+00  3.47944e+00  2.24359e-04  3.60000e+02  3.60056e+02  5.14767e+00  5.19743e+00  1.73819e-01  1.42681e+01  1.55286e+02  2.81496e+05 -5.21208e+05  1.14674e+03  0.00000e+00 -2.38565e+05  4.57642e+03 -2.33989e+05  1.73833e-01  1.00000e+00 -1.42857e+01  0.00000e+00  8.13497e-01 
 4.69084e-03  1.08931e-03  0.00000e+00  3.47944e+00  2.31409e-04  3.60002e+02  3.60056e+02  5.14391e+00  5.19520e+00  1.77968e-01  1.36852e+01  1.50555e+02  3.04917e+05 -5.12946e+05  1.11157e+03  0.00000e+00 -2.06918e+05  4.15671e+03 -2.02761e+05  1.77981e-01  1.00000e+00 -1.37026e+01  0.00000e+00  8.53245e-01 
 4.75174e-03  1.32727e-03  1.05001e-20  3.47944e+00  2.36403e-04  3.60005e+02  3.60056e+02  5.13913e+00  5.19131e+00  1.83071e-01  1.32552e+01  1.47375e+02  3.28908e+05 -5.17268e+05  1.08756e+03  0.00000e+00 -1.87272e+05  3.83140e+03 -1.83441e+05  1.83082e-01  1.00000e+00 -1.32726e+01  0.00000e+00  9.04168e-01 
 4.82366e-03  1.56534e-03  0.00000e+00  3.47944e+00  2.40294e-04  3.60008e+02  3.60056e+02  5.13323e+00  5.18591e+00  1.89136e-01  1.28743e+01  1.44989e+02  3.54856e+05 -5.29945e+05  1.06915e+03  0.00000e+00 -1.74019e+05  3.54391e+03 -1.70475e+05  1.89146e-01  1.00000e+00 -1.28921e+01  0.00000e+00  9.67265e-01 
 4.90611e-03  1.80349e-03  8.81027e-21  3.47944e+00  2.43658e-04  3.60011e+02  3.60056e+02  5.12608e+00  5.17903e+00  1.96107e-01  1.24793e+01  1.42987e+02  3.83275e+05 -5.48547e+05  1.05335e+03  0.00000e+00 -1.64219e+05  3.26757e+03 -1.60951e+05  1.96117e-01  1.00000e+00 -1.24974e+01  0.00000e+00  1.04381e+00 
 4.99859e-03  2.04170e-03  0.00000e+00  3.47944e+00  2.46861e-04  3.60015e+02  3.60056e+02  5.11754e+00  5.17064e+00  2.03939e-01  1.20302e+01  1.41132e+02  4.14160e+05 -5.71547e+05  1.03841e+03  0.00000e+00 -1.56349e+05  2.99002e+03 -1.53359e+05  2.03948e-01  1.00000e+00 -1.20488e+01  0.00000e+00  1.13522e+00 
 5.10055e-03  2.27996e-03  7.58893e-21  3.47944e+00  2.50135e-04  3.60019e+02  3.60056e+02  5.10745e+00  5.16063e+00  2.12548e-01  1.15002e+01  1.39285e+02  4.47213e+05 -5.97756e+05  1.02329e+03  0.00000e+00 -1.49520e+05  2.70696e+03 -1.46813e+05  2.12557e-01  1.00000e+00 -1.15194e+01  0.00000e+00  1.24312e+00 
 5.21143e-03  2.51826e-03  7.09702e-21  3.47944e+00  2.53632e-04  3.60024e+02  3.60056e+02  5.09564e+00  5.14888e+00  2.21844e-01  1.08733e+01  1.37364e+02  4.81906e+05 -6.26170e+05  1.00736e+03  0.00000e+00 -1.43257e+05  2.41871e+03 -1.40838e+05  2.21852e-01  1.00000e+00 -1.08930e+01  0.00000e+00  1.36925e+00 
 5.33068e-03  2.75659e-03  1.33300e-20  3.47944e+00  2.57447e-04  3.60029e+02  3.60056e+02  5.08192e+00  5.13521e+00  2.31711e-01  1.01420e+01  1.35328e+02  5.17576e+05 -6.55839e+05  9.90309e+02  0.00000e+00 -1.37272e+05  2.12838e+03 -1.35144e+05  2.31717e-01  1.00000e+00 -1.01623e+01  0.00000e+00  1.51544e+00 
 5.45775e-03  2.99495e-03  1.25651e-20  3.47944e+00  2.61629e-04  3.60033e+02  3.60056e+02  5.06611e+00  5.11947e+00  2.42025e-01  9.30750e+00  1.33166e+02  5.53475e+05 -6.85887e+05  9.72022e+02  0.00000e+00 -1.31440e+05  1.84060e+03 -1.29600e+05  2.42030e-01  1.00000e+00 -9.32838e+00  0.00000e+00  1.68357e+00 
 5.59212e-03  3.23333e-03  0.00000e+00  3.47944e+00  2.66184e-04  3.60038e+02  3.60056e+02  5.04804e+00  5.10149e+00  2.52648e-01  8.37826e+00  1.30887e+02  5.88874e+05 -7.15522e+05  9.52578e+02  0.00000e+00 -1.25695e+05  1.56051e+03 -1.24135e+05  2.52651e-01  1.00000e+00 -8.39966e+00  0.00000e+00  1.87553e+00 
 5.73326e-03  3.47172e-03  0.00000e+00  3.47944e+00  2.71077e-04  3.60043e+02  3.60056e+02  5.02757e+00  5.08112e+00  2.63351e-01  7.36741e+00  1.28524e+02  6.23214e+05 -7.43856e+05  9.32311e+02  0.00000e+00 -1.19709e+05  1.29326e+03 -1.18416e+05  2.63352e-01  1.00000e+00 -7.38928e+00  0.00000e+00  2.09314e+00 
 5.88069e-03  3.71014e-03 -5.35987e-21  3.47944e+00  2.76254e-04  3.60048e+02  3.60056e+02  5.00457e+00  5.05824e+00  2.74179e-01  6.29814e+00  1.26116e+02  6.55868e+05 -7.70892e+05  9.11291e+02  0.00000e+00 -1.14112e+05  1.04260e+03 -1.13070e+05  2.74178e-01  1.00000e+00 -6.32043e+00  0.00000e+00  2.33827e+00 
 6.03395e-03  3.94857e-03  5.10973e-21  3.47944e+00  2.81609e-04  3.60052e+02  3.60056e+02  4.97899e+00  5.03277e+00  2.84922e-01  5.18945e+00  1.23718e+02  6.86661e+05 -7.96195e+05  8.89927e+02  0.00000e+00 -1.08643e+05  8.11637e+02 -1.07832e+05  2.84919e-01  1.00000e+00 -5.21212e+00  0.00000e+00  2.61270e+00 
 6.19261e-03  4.18701e-03  0.00000e+00  3.47944e+00  2.87017e-04  3.60057e+02  3.60056e+02  4.95078e+00  5.00464e+00  2.95490e-01  4.06300e+00  1.21387e+02  7.15606e+05 -8.19866e+05  8.68860e+02  0.00000e+00 -1.03392e+05  6.01968e+02 -1.02790e+05  2.95487e-01  1.00000e+00 -4.08601e+00  0.00000e+00  2.91851e+00 
 6.35626e-03  4.42546e-03  0.00000e+00  3.47944e+00  2.92324e-04  3.60061e+02  3.60056e+02  4.91992e+00  4.97382e+00  3.05831e-01  2.93838e+00  1.19184e+02  7.42932e+05 -8.42317e+05  8.48433e+02  0.00000e+00 -9.85364e+04  4.13927e+02 -9.81224e+04  3.05826e-01  1.00000e+00 -2.96170e+00  0.00000e+00  3.25781e+00 
 6.52453e-03  4.66392e-03 -8.96437e-21  3.47944e+00  2.97362e-04  3.60066e+02  3.60056e+02  4.88643e+00  4.94031e+00  3.15819e-01  1.83164e+00  1.17165e+02  7.69262e+05 -8.63972e+05  8.28990e+02  0.00000e+00 -9.38814e+04  2.46838e+02 -9.36345e+04  3.15813e-01  1.00000e+00 -1.85526e+00  0.00000e+00  3.63352e+00 
 6.69707e-03  4.90238e-03  1.72236e-20  3.47944e+00  3.01962e-04  3.60070e+02  3.60057e+02  4.85028e+00  4.90404e+00  3.25489e-01  7.56026e-01  1.15380e+02  7.95200e+05 -8.85797e+05  8.10918e+02  0.00000e+00 -8.97861e+04  9.91539e+01 -8.96870e+04  3.25483e-01  1.00000e+00 -7.79946e-01  0.00000e+00  4.04886e+00 
 6.87356e-03  5.14086e-03  8.28595e-21  3.47944e+00  3.05953e-04  3.60073e+02  3.60057e+02  4.81143e+00  4.86495e+00  3.34758e-01 -6.98274e-01  1.13876e+02  8.21765e+05 -9.08606e+05  7.94497e+02  0.00000e+00 -8.60462e+04 -7.91495e+01 -8.61253e+04  3.34751e-01  1.00000e+00  6.48775e-01  0.00000e+00  4.50875e+00 
 7.05370e-03  5.37934e-03 -1.59677e-20  3.47944e+00  3.09192e-04  3.60077e+02  3.60057e+02  4.76978e+00  4.82293e+00  3.43694e-01 -2.91055e+00  1.12683e+02  8.49731e+05 -9.33542e+05  7.79922e+02  0.00000e+00 -8.30309e+04 -3.36328e+02 -8.33673e+04  3.43687e-01  1.00000e+00  2.86037e+00  0.00000e+00  5.01827e+00 
 7.23722e-03  5.61783e-03  0.00000e+00  3.47944e+00  3.11527e-04  3.60080e+02  3.60057e+02  4.72526e+00  4.77786e+00  3.52225e-01 -5.05594e+00  1.11839e+02  8.80438e+05 -9.61683e+05  7.67348e+02  0.00000e+00 -8.04780e+04 -5.69942e+02 -8.10480e+04  3.52218e-01  1.00000e+00  5.00499e+00  0.00000e+00  5.58608e+00 
 7.42387e-03  5.85632e-03  0.00000e+00  3.47944e+00  3.12876e-04  3.60083e+02  3.60057e+02  4.67758e+00  4.72943e+00  3.60465e-01 -7.16918e+00  1.11357e+02  9.14653e+05 -9.94291e+05  7.56821e+02  0.00000e+00 -7.88807e+04 -7.88543e+02 -7.96693e+04  3.60459e-01  1.00000e+00  7.11733e+00  0.00000e+00  6.22015e+00 
 7.61342e-03  6.09482e-03  0.00000e+00  3.47944e+00  3.13112e-04  3.60086e+02  3.60057e+02  4.62663e+00  4.67754e+00  3.68318e-01 -9.29548e+00  1.11274e+02  9.54144e+05 -1.03272e+06  7.48420e+02  0.00000e+00 -7.78258e+04 -1.00141e+03 -7.88272e+04  3.68313e-01  1.00000e+00  9.24257e+00  0.00000e+00  6.93579e+00 
 7.80566e-03  6.33332e-03  0.00000e+00  3.47944e+00  3.12215e-04  3.60088e+02  3.60058e+02  4.57180e+00  4.62156e+00  3.75957e-01 -1.14966e+01  1.11594e+02  9.99658e+05 -1.07849e+06  7.42095e+02  0.00000e+00 -7.80937e+04 -1.21807e+03 -7.93118e+04  3.75953e-01  1.00000e+00  1.14425e+01  0.00000e+00  7.74532e+00 
 8.00039e-03  6.57182e-03  0.00000e+00  3.47944e+00  3.10060e-04  3.60091e+02  3.60058e+02  4.51317e+00  4.56156e+00  3.83236e-01 -1.38547e+01  1.12370e+02  1.05388e+06 -1.13365e+06  7.37942e+02  0.00000e+00 -7.90270e+04 -1.45104e+03 -8.04781e+04  3.83234e-01  1.00000e+00  1.37991e+01  0.00000e+00  8.67697e+00 
 8.19744e-03  6.81033e-03  1.31016e-20  3.47944e+00  3.06676e-04  3.60094e+02  3.60058e+02  4.44927e+00  4.49607e+00  3.90395e-01 -1.64861e+01  1.13611e+02  1.11772e+06 -1.20039e+06  7.35863e+02  0.00000e+00 -8.19371e+04 -1.71460e+03 -8.36517e+04  3.90393e-01  1.00000e+00  1.64288e+01  0.00000e+00  9.75034e+00 
 8.39664e-03  7.04884e-03  0.00000e+00  3.47944e+00  3.01895e-04  3.60096e+02  3.60058e+02  4.38109e+00  4.42609e+00  3.97235e-01 -1.95607e+01  1.15411e+02  1.19589e+06 -1.28249e+06  7.36111e+02  0.00000e+00 -8.58661e+04 -2.03191e+03 -8.78980e+04  3.97235e-01  1.00000e+00  1.95014e+01  0.00000e+00  1.10216e+01 
 8.59784e-03  7.28736e-03  0.00000e+00  3.47944e+00  2.95774e-04  3.60100e+02  3.60059e+02  4.30468e+00  4.34762e+00  4.04050e-01 -2.33383e+01  1.17800e+02  1.29003e+06 -1.38379e+06  7.38518e+02  0.00000e+00 -9.30183e+04 -2.43371e+03 -9.54520e+04  4.04050e-01  1.00000e+00  2.32766e+01  0.00000e+00  1.25246e+01 
 8.80092e-03  7.52587e-03  0.00000e+00  3.47944e+00  2.88045e-04  3.60104e+02  3.60059e+02  4.22430e+00  4.26499e+00  4.10617e-01 -2.82402e+01  1.20961e+02  1.40948e+06 -1.51235e+06  7.43788e+02  0.00000e+00 -1.02133e+05 -2.97660e+03 -1.05110e+05  4.10619e-01  1.00000e+00  2.81757e+01  0.00000e+00  1.43828e+01 
 9.00573e-03  7.76439e-03 -1.17014e-20  3.47944e+00  2.78770e-04  3.60108e+02  3.60059e+02  4.12868e+00  4.16687e+00  4.17250e-01 -3.49783e+01  1.24987e+02  1.55858e+06 -1.67648e+06  7.51412e+02  0.00000e+00 -1.17151e+05 -3.75024e+03 -1.20902e+05  4.17251e-01  1.00000e+00  3.49105e+01  0.00000e+00  1.66669e+01 
 9.21216e-03  8.00291e-03  0.00000e+00  3.47944e+00  2.67481e-04  3.60115e+02  3.60060e+02  4.03178e+00  4.06726e+00  4.23750e-01 -4.48614e+01  1.30263e+02  1.75875e+06 -1.89615e+06  7.63464e+02  0.00000e+00 -1.36638e+05 -4.93766e+03 -1.41575e+05  4.23752e-01  1.00000e+00  4.47894e+01  0.00000e+00  1.96884e+01 
 9.42012e-03  8.24144e-03  0.00000e+00  3.47944e+00  2.54206e-04  3.60125e+02  3.60060e+02  3.90345e+00  3.93603e+00  4.30434e-01 -6.04271e+01  1.37067e+02  2.02484e+06 -2.19459e+06  7.78088e+02  0.00000e+00 -1.68971e+05 -6.89185e+03 -1.75863e+05  4.30436e-01  1.00000e+00  6.03501e+01  0.00000e+00  2.36550e+01 
 9.62949e-03  8.47996e-03  0.00000e+00  3.47944e+00  2.38115e-04  3.60140e+02  3.60061e+02  3.77965e+00  3.80917e+00  4.37173e-01 -8.73189e+01  1.46331e+02  2.41864e+06 -2.63221e+06  8.01360e+02  0.00000e+00 -2.12766e+05 -1.04714e+04 -2.23237e+05  4.37176e-01  1.00000e+00  8.72355e+01  0.00000e+00  2.95393e+01 
 9.84019e-03  8.71849e-03  0.00000e+00  3.47944e+00  2.19117e-04  3.60166e+02  3.60061e+02  3.58854e+00  3.61502e+00  4.44177e-01 -1.39243e+02  1.59021e+02  3.01106e+06 -3.29911e+06  8.26931e+02  0.00000e+00 -2.87224e+05 -1.78653e+04 -3.05089e+05  4.44181e-01  1.00000e+00  1.39151e+02  0.00000e+00  3.83729e+01 
 1.00521e-02  8.95702e-03  0.00000e+00  3.47944e+00  1.95697e-04  3.60217e+02  3.60062e+02  3.40042e+00  3.42402e+00  4.51388e-01 -2.59135e+02  1.78053e+02  4.07421e+06 -4.45653e+06  8.70091e+02  0.00000e+00 -3.81455e+05 -3.66418e+04 -4.18097e+05  4.51395e-01  1.00000e+00  2.59032e+02  0.00000e+00  5.48750e+01 
 1.02653e-02  9.19555e-03  0.00000e+00  3.47944e+00  1.68328e-04  3.60341e+02  3.60063e+02  3.04982e+00  3.06999e+00  4.59534e-01 -6.14280e+02  2.07007e+02  6.17378e+06 -6.61868e+06  9.02152e+02  0.00000e+00 -4.43994e+05 -9.92131e+04 -5.43207e+05  4.59539e-01  1.00000e+00  6.14161e+02  0.00000e+00  9.06389e+01 
 1.04795e-02  9.43408e-03  0.00000e+00  3.47944e+00  1.39331e-04  3.60797e+02  3.60064e+02  2.55880e+00  2.57162e+00  4.69593e-01 -5.70475e+03  2.50094e+02  1.17270e+07 -1.05868e+07  9.44139e+02  1.14261e+06  2.28380e+06 -2.31123e+06 -2.74351e+04  4.69604e-01  1.00000e+00  5.70461e+03  3.44117e+03  2.28306e+02 
