# Code_Saturne plot output (1D profile)
#
# Iteration output: 2459
# Time output:      2.30015e+01
#
#COLUMN_TITLES: Distance | X | Y | Z | diameter_Field2 | temp_Field1 | temp_Field2 | Velocity_Field1[Z] | Velocity_Field2[Z] | vol_f_Field2 | mass_trans_Field1 | Xd_Field2 | BK | COAL | COMP | NUCL | W1 | MT | SMBR | ALPBB | CONDNUM | GAMA | GAMANUC | epsilon_Field1
 4.56474e-03  1.39645e-04  0.00000e+00  3.47944e+00  6.08299e-05  3.59640e+02  3.60052e+02  4.64788e+00  4.65718e+00  4.83591e-02  1.28020e+02  5.72892e+02  1.60622e-06 -7.33112e+05  3.37346e+03  0.00000e+00 -7.29739e+05  4.43031e+05 -2.86707e+05  4.83639e-02  1.00000e+00 -1.28020e+02  0.00000e+00  4.01913e-01 
 4.57812e-03  3.76525e-04  4.25872e-21  3.47944e+00  7.93393e-05  3.59641e+02  3.60052e+02  4.64748e+00  4.66100e+00  4.91958e-02  9.02154e+01  4.39239e+02  1.11854e-01 -4.75654e+05  2.58621e+03  0.00000e+00 -4.73068e+05  2.35296e+05 -2.37771e+05  4.92011e-02  1.00000e+00 -9.02156e+01  0.00000e+00  4.06845e-01 
 4.60371e-03  6.13858e-04  0.00000e+00  3.47944e+00  9.50307e-05  3.59643e+02  3.60052e+02  4.64622e+00  4.66331e+00  5.07648e-02  7.27243e+01  3.66712e+02  1.77597e+01 -3.63045e+05  2.15986e+03  0.00000e+00 -3.60867e+05  1.53462e+05 -2.07405e+05  5.07710e-02  1.00000e+00 -7.27244e+01  0.00000e+00  4.16511e-01 
 4.64138e-03  8.51483e-04  0.00000e+00  3.47944e+00  1.08253e-04  3.59648e+02  3.60052e+02  4.64432e+00  4.66439e+00  5.30297e-02  6.34763e+01  3.21920e+02  2.86211e+02 -3.06600e+05  1.89640e+03  0.00000e+00 -3.04417e+05  1.12563e+05 -1.91854e+05  5.30370e-02  1.00000e+00 -6.34764e+01  0.00000e+00  4.31100e-01 
 4.69084e-03  1.08931e-03  0.00000e+00  3.47944e+00  1.19862e-04  3.59655e+02  3.60052e+02  4.64173e+00  4.66434e+00  5.60049e-02  5.80454e+01  2.90741e+02  1.69704e+03 -2.75677e+05  1.71279e+03  0.00000e+00 -2.72267e+05  8.80242e+04 -1.84243e+05  5.60133e-02  1.00000e+00 -5.80455e+01  0.00000e+00  4.50916e-01 
 4.75174e-03  1.32727e-03  1.05001e-20  3.47944e+00  1.30179e-04  3.59664e+02  3.60051e+02  4.63844e+00  4.66324e+00  5.97243e-02  5.48056e+01  2.67701e+02  5.85630e+03 -2.59485e+05  1.57686e+03  0.00000e+00 -2.52052e+05  7.17591e+04 -1.80293e+05  5.97336e-02  1.00000e+00 -5.48057e+01  0.00000e+00  4.76389e-01 
 4.82366e-03  1.56534e-03  0.00000e+00  3.47944e+00  1.39280e-04  3.59676e+02  3.60051e+02  4.63443e+00  4.66108e+00  6.42263e-02  5.28992e+01  2.50207e+02  1.44816e+04 -2.53432e+05  1.47339e+03  0.00000e+00 -2.37477e+05  6.01992e+04 -1.77277e+05  6.42364e-02  1.00000e+00 -5.28993e+01  0.00000e+00  5.08095e-01 
 4.90611e-03  1.80349e-03  8.81027e-21  3.47944e+00  1.47164e-04  3.59690e+02  3.60051e+02  4.62965e+00  4.65784e+00  6.95559e-02  5.18097e+01  2.36803e+02  2.87271e+04 -2.55371e+05  1.39379e+03  0.00000e+00 -2.25251e+05  5.15256e+04 -1.73725e+05  6.95665e-02  1.00000e+00 -5.18098e+01  0.00000e+00  5.46765e-01 
 4.99859e-03  2.04170e-03  0.00000e+00  3.47944e+00  1.53839e-04  3.59705e+02  3.60051e+02  4.62405e+00  4.65346e+00  7.57595e-02  5.14558e+01  2.26528e+02  4.90009e+04 -2.64269e+05  1.33241e+03  0.00000e+00 -2.13935e+05  4.49456e+04 -1.68990e+05  7.57701e-02  1.00000e+00 -5.14559e+01  0.00000e+00  5.93303e-01 
 5.10055e-03  2.27996e-03  7.58893e-21  3.47944e+00  1.59368e-04  3.59722e+02  3.60051e+02  4.61756e+00  4.64789e+00  8.28790e-02  5.16239e+01  2.18670e+02  7.52437e+04 -2.79637e+05  1.28503e+03  0.00000e+00 -2.03108e+05  3.97896e+04 -1.63319e+05  8.28894e-02  1.00000e+00 -5.16240e+01  0.00000e+00  6.48804e-01 
 5.21143e-03  2.51826e-03  7.09702e-21  3.47944e+00  1.63872e-04  3.59741e+02  3.60051e+02  4.61008e+00  4.64108e+00  9.09521e-02  5.21272e+01  2.12659e+02  1.07293e+05 -3.01295e+05  1.24829e+03  0.00000e+00 -1.92753e+05  3.56057e+04 -1.57147e+05  9.09621e-02  1.00000e+00 -5.21274e+01  0.00000e+00  7.14575e-01 
 5.33068e-03  2.75659e-03  1.33300e-20  3.47944e+00  1.67512e-04  3.59761e+02  3.60051e+02  4.60152e+00  4.63293e+00  1.00002e-01  5.27886e+01  2.08038e+02  1.45087e+05 -3.29210e+05  1.21947e+03  0.00000e+00 -1.82903e+05  3.20824e+04 -1.50821e+05  1.00011e-01  1.00000e+00 -5.27887e+01  0.00000e+00  7.92157e-01 
 5.45775e-03  2.99495e-03  1.25651e-20  3.47944e+00  1.70464e-04  3.59782e+02  3.60051e+02  4.59173e+00  4.62337e+00  1.10039e-01  5.34438e+01  2.04436e+02  1.88681e+05 -3.63427e+05  1.19632e+03  0.00000e+00 -1.73550e+05  2.90071e+04 -1.44543e+05  1.10048e-01  1.00000e+00 -5.34439e+01  0.00000e+00  8.83348e-01 
 5.59212e-03  3.23333e-03  0.00000e+00  3.47944e+00  1.72903e-04  3.59803e+02  3.60051e+02  4.58055e+00  4.61229e+00  1.21050e-01  5.39345e+01  2.01552e+02  2.38167e+05 -4.03969e+05  1.17709e+03  0.00000e+00 -1.64625e+05  2.62357e+04 -1.38390e+05  1.21058e-01  1.00000e+00 -5.39347e+01  0.00000e+00  9.90222e-01 
 5.73326e-03  3.47172e-03  0.00000e+00  3.47944e+00  1.74990e-04  3.59824e+02  3.60051e+02  4.56780e+00  4.59952e+00  1.33001e-01  5.41173e+01  1.99148e+02  2.93557e+05 -4.50780e+05  1.16031e+03  0.00000e+00 -1.56063e+05  2.36738e+04 -1.32389e+05  1.33008e-01  1.00000e+00 -5.41174e+01  0.00000e+00  1.11514e+00 
 5.88069e-03  3.71014e-03 -5.35987e-21  3.47944e+00  1.76869e-04  3.59846e+02  3.60051e+02  4.55327e+00  4.58488e+00  1.45825e-01  5.38667e+01  1.97033e+02  3.54681e+05 -5.03637e+05  1.14483e+03  0.00000e+00 -1.47810e+05  2.12640e+04 -1.26546e+05  1.45831e-01  1.00000e+00 -5.38669e+01  0.00000e+00  1.26075e+00 
 6.03395e-03  3.94857e-03  5.10973e-21  3.47944e+00  1.78661e-04  3.59867e+02  3.60051e+02  4.53671e+00  4.56815e+00  1.59432e-01  5.30859e+01  1.95056e+02  4.21107e+05 -5.62123e+05  1.12972e+03  0.00000e+00 -1.39886e+05  1.89753e+04 -1.20911e+05  1.59436e-01  1.00000e+00 -5.30861e+01  0.00000e+00  1.42998e+00 
 6.19261e-03  4.18701e-03  0.00000e+00  3.47944e+00  1.80468e-04  3.59887e+02  3.60051e+02  4.51788e+00  4.54911e+00  1.73684e-01  5.17069e+01  1.93103e+02  4.92129e+05 -6.25504e+05  1.11427e+03  0.00000e+00 -1.32261e+05  1.67966e+04 -1.15464e+05  1.73681e-01  1.00000e+00 -5.17071e+01  0.00000e+00  1.62600e+00 
 6.35626e-03  4.42546e-03  0.00000e+00  3.47944e+00  1.82368e-04  3.59907e+02  3.60051e+02  4.49649e+00  4.52749e+00  1.88459e-01  4.97147e+01  1.91092e+02  5.66734e+05 -6.92982e+05  1.09795e+03  0.00000e+00 -1.25150e+05  1.47285e+04 -1.10422e+05  1.88454e-01  1.00000e+00 -4.97149e+01  0.00000e+00  1.85221e+00 
 6.52453e-03  4.66392e-03 -8.96437e-21  3.47944e+00  1.84409e-04  3.59925e+02  3.60051e+02  4.47227e+00  4.50303e+00  2.03568e-01  4.71217e+01  1.88977e+02  6.43751e+05 -7.63400e+05  1.08045e+03  0.00000e+00 -1.18568e+05  1.27812e+04 -1.05787e+05  2.03561e-01  1.00000e+00 -4.71219e+01  0.00000e+00  2.11218e+00 
 6.69707e-03  4.90238e-03  1.72236e-20  3.47944e+00  1.86618e-04  3.59943e+02  3.60052e+02  4.44499e+00  4.47548e+00  2.18843e-01  4.39895e+01  1.86741e+02  7.21881e+05 -8.35651e+05  1.06168e+03  0.00000e+00 -1.12708e+05  1.09671e+04 -1.01741e+05  2.18845e-01  1.00000e+00 -4.39897e+01  0.00000e+00  2.40956e+00 
 6.87356e-03  5.14086e-03  8.28595e-21  3.47944e+00  1.88985e-04  3.59959e+02  3.60052e+02  4.41441e+00  4.44463e+00  2.34098e-01  4.04054e+01  1.84403e+02  7.99998e+05 -9.08565e+05  1.04169e+03  0.00000e+00 -1.07525e+05  9.29923e+03 -9.82262e+04  2.34098e-01  1.00000e+00 -4.04057e+01  0.00000e+00  2.74838e+00 
 7.05370e-03  5.37934e-03 -1.59677e-20  3.47944e+00  1.91477e-04  3.59974e+02  3.60052e+02  4.38034e+00  4.41027e+00  2.49196e-01  3.64869e+01  1.82003e+02  8.77092e+05 -9.81420e+05  1.02070e+03  0.00000e+00 -1.03308e+05  7.78600e+03 -9.55218e+04  2.49195e-01  1.00000e+00 -3.64871e+01  0.00000e+00  3.13270e+00 
 7.23722e-03  5.61783e-03  0.00000e+00  3.47944e+00  1.94023e-04  3.59988e+02  3.60052e+02  4.34266e+00  4.37229e+00  2.63938e-01  3.23498e+01  1.79615e+02  9.52781e+05 -1.05365e+06  9.99157e+02  0.00000e+00 -9.98650e+04  6.43211e+03 -9.34329e+04  2.63937e-01  1.00000e+00 -3.23501e+01  0.00000e+00  3.56765e+00 
 7.42387e-03  5.85632e-03  0.00000e+00  3.47944e+00  1.96537e-04  3.60001e+02  3.60052e+02  4.30124e+00  4.33053e+00  2.78279e-01  2.81138e+01  1.77318e+02  1.02690e+06 -1.12553e+06  9.77469e+02  0.00000e+00 -9.76613e+04  5.23400e+03 -9.24273e+04  2.78278e-01  1.00000e+00 -2.81141e+01  0.00000e+00  4.05875e+00 
 7.61342e-03  6.09482e-03  0.00000e+00  3.47944e+00  1.98889e-04  3.60013e+02  3.60052e+02  4.25600e+00  4.28492e+00  2.92038e-01  2.38722e+01  1.75222e+02  1.10040e+06 -1.19763e+06  9.56205e+02  0.00000e+00 -9.62763e+04  4.18491e+03 -9.20914e+04  2.92036e-01  1.00000e+00 -2.38725e+01  0.00000e+00  4.61449e+00 
 7.80566e-03  6.33332e-03  0.00000e+00  3.47944e+00  2.00959e-04  3.60023e+02  3.60052e+02  4.20672e+00  4.23522e+00  3.05288e-01  1.97017e+01  1.73417e+02  1.17415e+06 -1.27164e+06  9.35836e+02  0.00000e+00 -9.65484e+04  3.26988e+03 -9.32785e+04  3.05286e-01  1.00000e+00 -1.97020e+01  0.00000e+00  5.24420e+00 
 8.00039e-03  6.57182e-03  0.00000e+00  3.47944e+00  2.02575e-04  3.60033e+02  3.60052e+02  4.15329e+00  4.18131e+00  3.17857e-01  1.56416e+01  1.72035e+02  1.25083e+06 -1.34952e+06  9.16935e+02  0.00000e+00 -9.77716e+04  2.47350e+03 -9.52981e+04  3.17856e-01  1.00000e+00 -1.56419e+01  0.00000e+00  5.96436e+00 
 8.19744e-03  6.81033e-03  1.31016e-20  3.47944e+00  2.03609e-04  3.60041e+02  3.60052e+02  4.09515e+00  4.12259e+00  3.29944e-01  1.17037e+01  1.71162e+02  1.33225e+06 -1.43454e+06  8.99848e+02  0.00000e+00 -1.01393e+05  1.77393e+03 -9.96195e+04  3.29943e-01  1.00000e+00 -1.17040e+01  0.00000e+00  6.79218e+00 
 8.39664e-03  7.04884e-03  0.00000e+00  3.47944e+00  2.03855e-04  3.60049e+02  3.60053e+02  4.03220e+00  4.05896e+00  3.41364e-01  7.86370e+00  1.70956e+02  1.42340e+06 -1.53067e+06  8.85086e+02  0.00000e+00 -1.06381e+05  1.15066e+03 -1.05230e+05  3.41364e-01  1.00000e+00 -7.86401e+00  0.00000e+00  7.76178e+00 
 8.59784e-03  7.28736e-03  0.00000e+00  3.47944e+00  2.03197e-04  3.60057e+02  3.60053e+02  3.96284e+00  3.98876e+00  3.52418e-01  4.05740e+00  1.71511e+02  1.52729e+06 -1.64330e+06  8.72880e+02  0.00000e+00 -1.15131e+05  5.76968e+02 -1.14554e+05  3.52418e-01  1.00000e+00 -4.05772e+00  0.00000e+00  8.90622e+00 
 8.80092e-03  7.52587e-03  0.00000e+00  3.47944e+00  2.01389e-04  3.60064e+02  3.60053e+02  3.88778e+00  3.91271e+00  3.62909e-01  1.77728e-01  1.73051e+02  1.65322e+06 -1.78045e+06  8.63753e+02  0.00000e+00 -1.26369e+05  2.48067e+01 -1.26344e+05  3.62909e-01  1.00000e+00 -1.78055e-01  0.00000e+00  1.03017e+01 
 9.00573e-03  7.76439e-03 -1.17014e-20  3.47944e+00  1.98333e-04  3.60070e+02  3.60053e+02  3.80212e+00  3.82586e+00  3.73201e-01 -8.72594e+00  1.75719e+02  1.80702e+06 -1.95196e+06  8.57802e+02  0.00000e+00 -1.44084e+05 -1.20033e+03 -1.45284e+05  3.73202e-01  1.00000e+00  8.72543e+00  0.00000e+00  1.20190e+01 
 9.21216e-03  8.00291e-03  0.00000e+00  3.47944e+00  1.93678e-04  3.60077e+02  3.60054e+02  3.71023e+00  3.73258e+00  3.83128e-01 -1.95299e+01  1.79943e+02  2.00917e+06 -2.17741e+06  8.56055e+02  0.00000e+00 -1.67385e+05 -2.67989e+03 -1.70065e+05  3.83128e-01  1.00000e+00  1.95294e+01  0.00000e+00  1.42538e+01 
 9.42012e-03  8.24144e-03  0.00000e+00  3.47944e+00  1.87271e-04  3.60086e+02  3.60054e+02  3.59738e+00  3.61812e+00  3.93038e-01 -3.44372e+01  1.86101e+02  2.27678e+06 -2.48164e+06  8.58349e+02  0.00000e+00 -2.03994e+05 -4.76401e+03 -2.08758e+05  3.93039e-01  1.00000e+00  3.44367e+01  0.00000e+00  1.72007e+01 
 9.62949e-03  8.47996e-03  0.00000e+00  3.47944e+00  1.78641e-04  3.60097e+02  3.60055e+02  3.47822e+00  3.49712e+00  4.02925e-01 -5.85104e+01  1.95093e+02  2.66626e+06 -2.92126e+06  8.67190e+02  0.00000e+00 -2.54127e+05 -8.27722e+03 -2.62405e+05  4.02926e-01  1.00000e+00  5.85098e+01  0.00000e+00  2.14914e+01 
 9.84019e-03  8.71849e-03  0.00000e+00  3.47944e+00  1.67577e-04  3.60117e+02  3.60055e+02  3.31235e+00  3.32920e+00  4.12879e-01 -1.04629e+02  2.07975e+02  3.24878e+06 -3.57962e+06  8.79973e+02  0.00000e+00 -3.29958e+05 -1.53983e+04 -3.45356e+05  4.12880e-01  1.00000e+00  1.04628e+02  0.00000e+00  2.79696e+01 
 1.00521e-02  8.95702e-03  0.00000e+00  3.47944e+00  1.53409e-04  3.60155e+02  3.60056e+02  3.13159e+00  3.14634e+00  4.22990e-01 -2.13030e+02  2.27185e+02  4.26376e+06 -4.67860e+06  9.01811e+02  0.00000e+00 -4.13937e+05 -3.34292e+04 -4.47367e+05  4.22991e-01  1.00000e+00  2.13029e+02  0.00000e+00  3.98437e+01 
 1.02653e-02  9.19555e-03  0.00000e+00  3.47944e+00  1.36517e-04  3.60256e+02  3.60056e+02  2.82720e+00  2.83898e+00  4.33416e-01 -5.46968e+02  2.55301e+02  6.22065e+06 -6.62344e+06  9.09112e+02  0.00000e+00 -4.01882e+05 -9.41340e+04 -4.96016e+05  4.33417e-01  1.00000e+00  5.46967e+02  0.00000e+00  6.57758e+01 
 1.04795e-02  9.43408e-03  0.00000e+00  3.47944e+00  1.19780e-04  3.60659e+02  3.60057e+02  2.37081e+00  2.37680e+00  4.46384e-01 -5.43671e+03  2.90980e+02  1.11013e+07 -1.00021e+07  9.01361e+02  1.32142e+06  2.42146e+06 -2.46609e+06 -4.46352e+04  4.46387e-01  1.00000e+00  5.43671e+03  3.29212e+03  1.65033e+02 
