# Code_Saturne plot output (1D profile)
#
# Iteration output: 3725
# Time output:      2.30018e+01
#
#COLUMN_TITLES: Distance | X | Y | Z | diameter_Field2 | temp_Field1 | temp_Field2 | Velocity_Field1[Z] | Velocity_Field2[Z] | vol_f_Field2 | mass_trans_Field1 | Xd_Field2 | BK | COAL | COMP | NUCL | W1 | MT | SMBR | ALPBB | CONDNUM | GAMA | GAMANUC | epsilon_Field1
 4.56474e-03  1.39645e-04  0.00000e+00  3.47944e+00  2.19922e-04  3.59709e+02  3.60054e+02  4.85347e+00  4.89976e+00  1.20492e-01  5.11086e+01  1.58441e+02  2.47299e+05 -7.22689e+05  1.05578e+03  0.00000e+00 -4.74334e+05  2.35315e+04 -4.50803e+05  1.20502e-01  1.00000e+00 -5.10717e+01  0.00000e+00  7.38004e-01 
 4.57812e-03  3.76525e-04  4.25872e-21  3.47944e+00  2.43247e-04  3.59710e+02  3.60054e+02  4.85251e+00  4.90465e+00  1.21472e-01  4.50025e+01  1.43248e+02  2.74718e+05 -6.13494e+05  9.55243e+02  0.00000e+00 -3.37820e+05  1.85820e+04 -3.19238e+05  1.21487e-01  1.00000e+00 -4.49699e+01  0.00000e+00  7.47048e-01 
 4.60371e-03  6.13858e-04  0.00000e+00  3.47944e+00  2.58256e-04  3.59712e+02  3.60054e+02  4.85053e+00  4.90631e+00  1.23260e-01  4.20363e+01  1.34923e+02  2.90475e+05 -5.64625e+05  9.00107e+02  0.00000e+00 -2.73250e+05  1.61114e+04 -2.57139e+05  1.23276e-01  1.00000e+00 -4.20056e+01  0.00000e+00  7.64708e-01 
 4.64138e-03  8.51483e-04  0.00000e+00  3.47944e+00  2.68987e-04  3.59716e+02  3.60054e+02  4.84768e+00  4.90591e+00  1.25847e-01  4.04339e+01  1.29540e+02  3.04089e+05 -5.42289e+05  8.64237e+02  0.00000e+00 -2.37336e+05  1.45731e+04 -2.22763e+05  1.25864e-01  1.00000e+00 -4.04041e+01  0.00000e+00  7.91329e-01 
 4.69084e-03  1.08931e-03  0.00000e+00  3.47944e+00  2.78115e-04  3.59720e+02  3.60054e+02  4.84385e+00  4.90399e+00  1.29278e-01  3.94137e+01  1.25288e+02  3.18256e+05 -5.32327e+05  8.35691e+02  0.00000e+00 -2.13235e+05  1.33744e+04 -1.99860e+05  1.29297e-01  1.00000e+00 -3.93843e+01  0.00000e+00  8.27374e-01 
 4.75174e-03  1.32727e-03  1.05001e-20  3.47944e+00  2.86940e-04  3.59726e+02  3.60054e+02  4.83899e+00  4.90086e+00  1.33545e-01  3.86364e+01  1.21435e+02  3.33443e+05 -5.28823e+05  8.09654e+02  0.00000e+00 -1.94571e+05  1.23012e+04 -1.82269e+05  1.33565e-01  1.00000e+00 -3.86071e+01  0.00000e+00  8.73541e-01 
 4.82366e-03  1.56534e-03  0.00000e+00  3.47944e+00  2.96184e-04  3.59732e+02  3.60054e+02  4.83302e+00  4.89662e+00  1.38661e-01  3.79298e+01  1.17645e+02  3.49330e+05 -5.28806e+05  7.83920e+02  0.00000e+00 -1.78691e+05  1.12674e+04 -1.67424e+05  1.38682e-01  1.00000e+00 -3.79005e+01  0.00000e+00  9.30672e-01 
 4.90611e-03  1.80349e-03  8.81027e-21  3.47944e+00  3.06297e-04  3.59740e+02  3.60054e+02  4.82585e+00  4.89128e+00  1.44605e-01  3.71854e+01  1.13761e+02  3.65278e+05 -5.30373e+05  7.57459e+02  0.00000e+00 -1.64337e+05  1.02423e+04 -1.54095e+05  1.44628e-01  1.00000e+00 -3.71560e+01  0.00000e+00  9.99796e-01 
 4.99859e-03  2.04170e-03  0.00000e+00  3.47944e+00  3.17583e-04  3.59749e+02  3.60054e+02  4.81737e+00  4.88482e+00  1.51361e-01  3.63344e+01  1.09718e+02  3.80465e+05 -5.32198e+05  7.29843e+02  0.00000e+00 -1.51003e+05  9.22112e+03 -1.41782e+05  1.51386e-01  1.00000e+00 -3.63049e+01  0.00000e+00  1.08206e+00 
 5.10055e-03  2.27996e-03  7.58893e-21  3.47944e+00  3.30246e-04  3.59758e+02  3.60054e+02  4.80746e+00  4.87714e+00  1.58874e-01  3.53294e+01  1.05511e+02  3.94060e+05 -5.33205e+05  7.01041e+02  0.00000e+00 -1.38445e+05  8.21426e+03 -1.30230e+05  1.58901e-01  1.00000e+00 -3.52999e+01  0.00000e+00  1.17877e+00 
 5.21143e-03  2.51826e-03  7.09702e-21  3.47944e+00  3.44402e-04  3.59769e+02  3.60054e+02  4.79596e+00  4.86813e+00  1.67093e-01  3.41493e+01  1.01174e+02  4.05289e+05 -5.32643e+05  6.71280e+02  0.00000e+00 -1.26682e+05  7.23874e+03 -1.19443e+05  1.67123e-01  1.00000e+00 -3.41197e+01  0.00000e+00  1.29125e+00 
 5.33068e-03  2.75659e-03  1.33300e-20  3.47944e+00  3.60064e-04  3.59780e+02  3.60054e+02  4.78273e+00  4.85761e+00  1.75920e-01  3.27896e+01  9.67732e+01  4.13627e+05 -5.29967e+05  6.41003e+02  0.00000e+00 -1.15698e+05  6.31453e+03 -1.09384e+05  1.75952e-01  1.00000e+00 -3.27601e+01  0.00000e+00  1.42097e+00 
 5.45775e-03  2.99495e-03  1.25651e-20  3.47944e+00  3.77105e-04  3.59792e+02  3.60054e+02  4.76760e+00  4.84538e+00  1.85273e-01  3.12707e+01  9.24002e+01  4.18813e+05 -5.25032e+05  6.10846e+02  0.00000e+00 -1.05608e+05  5.45952e+03 -1.00149e+05  1.85304e-01  1.00000e+00 -3.12414e+01  0.00000e+00  1.56925e+00 
 5.59212e-03  3.23333e-03  0.00000e+00  3.47944e+00  3.95257e-04  3.59805e+02  3.60054e+02  4.75067e+00  4.83120e+00  1.95006e-01  2.96191e+01  8.81568e+01  4.21031e+05 -5.17944e+05  5.81348e+02  0.00000e+00 -9.63322e+04  4.68723e+03 -9.16450e+04  1.95035e-01  1.00000e+00 -2.95900e+01  0.00000e+00  1.73766e+00 
 5.73326e-03  3.47172e-03  0.00000e+00  3.47944e+00  4.14132e-04  3.59819e+02  3.60054e+02  4.73206e+00  4.81328e+00  2.05037e-01  2.77251e+01  8.41391e+01  4.20818e+05 -5.09310e+05  5.53315e+02  0.00000e+00 -8.79382e+04  3.98255e+03 -8.39557e+04  2.05063e-01  1.00000e+00 -2.76963e+01  0.00000e+00  1.92810e+00 
 5.88069e-03  3.71014e-03 -5.35987e-21  3.47944e+00  4.33169e-04  3.59833e+02  3.60054e+02  4.71139e+00  4.79203e+00  2.15208e-01  2.58183e+01  8.04414e+01  4.19024e+05 -4.99807e+05  5.27040e+02  0.00000e+00 -8.02560e+04  3.37794e+03 -7.68780e+04  2.15234e-01  1.00000e+00 -2.57900e+01  0.00000e+00  2.14265e+00 
 6.03395e-03  3.94857e-03  5.10973e-21  3.47944e+00  4.51769e-04  3.59847e+02  3.60054e+02  4.68840e+00  4.76809e+00  2.25542e-01  2.39700e+01  7.71298e+01  4.16449e+05 -4.90519e+05  5.03165e+02  0.00000e+00 -7.35664e+04  2.86908e+03 -7.06973e+04  2.25566e-01  1.00000e+00 -2.39420e+01  0.00000e+00  2.38296e+00 
 6.19261e-03  4.18701e-03  0.00000e+00  3.47944e+00  4.69245e-04  3.59862e+02  3.60054e+02  4.66301e+00  4.74163e+00  2.35852e-01  2.22014e+01  7.42573e+01  4.14174e+05 -4.82202e+05  4.82047e+02  0.00000e+00 -6.75458e+04  2.44642e+03 -6.50993e+04  2.35875e-01  1.00000e+00 -2.21736e+01  0.00000e+00  2.65188e+00 
 6.35626e-03  4.42546e-03  0.00000e+00  3.47944e+00  4.85004e-04  3.59877e+02  3.60054e+02  4.63507e+00  4.71263e+00  2.46139e-01  2.05266e+01  7.18446e+01  4.12926e+05 -4.75778e+05  4.63847e+02  0.00000e+00 -6.23884e+04  2.09676e+03 -6.02916e+04  2.46161e-01  1.00000e+00 -2.04988e+01  0.00000e+00  2.95138e+00 
 6.52453e-03  4.66392e-03 -8.96437e-21  3.47944e+00  4.98509e-04  3.59893e+02  3.60054e+02  4.60457e+00  4.68105e+00  2.56233e-01  1.89331e+01  6.98985e+01  4.13536e+05 -4.71813e+05  4.48532e+02  0.00000e+00 -5.78282e+04  1.80728e+03 -5.60209e+04  2.56258e-01  1.00000e+00 -1.89053e+01  0.00000e+00  3.28522e+00 
 6.69707e-03  4.90238e-03  1.72236e-20  3.47944e+00  5.09456e-04  3.59909e+02  3.60054e+02  4.57136e+00  4.64678e+00  2.66190e-01  1.74066e+01  6.83967e+01  4.16350e+05 -4.70898e+05  4.35982e+02  0.00000e+00 -5.41121e+04  1.56484e+03 -5.25473e+04  2.66215e-01  1.00000e+00 -1.73784e+01  0.00000e+00  3.65594e+00 
 6.87356e-03  5.14086e-03  8.28595e-21  3.47944e+00  5.17626e-04  3.59925e+02  3.60054e+02  4.53540e+00  4.60978e+00  2.75864e-01  1.59147e+01  6.73173e+01  4.21889e+05 -4.73304e+05  4.25971e+02  0.00000e+00 -5.09888e+04  1.35853e+03 -4.96303e+04  2.75891e-01  1.00000e+00 -1.58861e+01  0.00000e+00  4.06884e+00 
 7.05370e-03  5.37934e-03 -1.59677e-20  3.47944e+00  5.23040e-04  3.59942e+02  3.60054e+02  4.49651e+00  4.56988e+00  2.85345e-01  1.44281e+01  6.66208e+01  4.30232e+05 -4.79354e+05  4.18229e+02  0.00000e+00 -4.87037e+04  1.17813e+03 -4.75256e+04  2.85371e-01  1.00000e+00 -1.43988e+01  0.00000e+00  4.52789e+00 
 7.23722e-03  5.61783e-03  0.00000e+00  3.47944e+00  5.25699e-04  3.59958e+02  3.60055e+02  4.45466e+00  4.52704e+00  2.94479e-01  1.29075e+01  6.62840e+01  4.41850e+05 -4.89193e+05  4.12492e+02  0.00000e+00 -4.69307e+04  1.01582e+03 -4.59149e+04  2.94505e-01  1.00000e+00 -1.28774e+01  0.00000e+00  5.04160e+00 
 7.42387e-03  5.85632e-03  0.00000e+00  3.47944e+00  5.25820e-04  3.59975e+02  3.60055e+02  4.40948e+00  4.48091e+00  3.03426e-01  1.13171e+01  6.62690e+01  4.56694e+05 -5.03147e+05  4.08518e+02  0.00000e+00 -4.60446e+04  8.63851e+02 -4.51808e+04  3.03449e-01  1.00000e+00 -1.12860e+01  0.00000e+00  5.61568e+00 
 7.61342e-03  6.09482e-03  0.00000e+00  3.47944e+00  5.23453e-04  3.59993e+02  3.60055e+02  4.36105e+00  4.43155e+00  3.11989e-01  9.61386e+00  6.65690e+01  4.75496e+05 -5.21484e+05  4.06108e+02  0.00000e+00 -4.55815e+04  7.16492e+02 -4.48650e+04  3.12012e-01  1.00000e+00 -9.58148e+00  0.00000e+00  6.26515e+00 
 7.80566e-03  6.33332e-03  0.00000e+00  3.47944e+00  5.18875e-04  3.60010e+02  3.60055e+02  4.30855e+00  4.37815e+00  3.20418e-01  7.75271e+00  6.71566e+01  4.98212e+05 -5.44785e+05  4.05094e+02  0.00000e+00 -4.61677e+04  5.67000e+02 -4.56007e+04  3.20435e-01  1.00000e+00 -7.71887e+00  0.00000e+00  6.99850e+00 
 8.00039e-03  6.57182e-03  0.00000e+00  3.47944e+00  5.12051e-04  3.60028e+02  3.60055e+02  4.25246e+00  4.32119e+00  3.28456e-01  5.67913e+00  6.80520e+01  5.26173e+05 -5.73737e+05  4.05381e+02  0.00000e+00 -4.71583e+04  4.09808e+02 -4.67485e+04  3.28474e-01  1.00000e+00 -5.64360e+00  0.00000e+00  7.84339e+00 
 8.19744e-03  6.81033e-03  1.31016e-20  3.47944e+00  5.03257e-04  3.60046e+02  3.60056e+02  4.19081e+00  4.25870e+00  3.36420e-01  3.32405e+00  6.92414e+01  5.59500e+05 -6.09415e+05  4.06867e+02  0.00000e+00 -4.95079e+04  2.37082e+02 -4.92708e+04  3.36430e-01  1.00000e+00 -3.28656e+00  0.00000e+00  8.81381e+00 
 8.39664e-03  7.04884e-03  0.00000e+00  3.47944e+00  4.92313e-04  3.60065e+02  3.60056e+02  4.12548e+00  4.19256e+00  3.44049e-01  5.99245e-01  7.07810e+01  6.00558e+05 -6.53471e+05  4.09620e+02  0.00000e+00 -5.25038e+04  4.03404e+01 -5.24635e+04  3.44060e-01  1.00000e+00 -5.59461e-01  0.00000e+00  9.96219e+00 
 8.59784e-03  7.28736e-03  0.00000e+00  3.47944e+00  4.79487e-04  3.60085e+02  3.60056e+02  4.05129e+00  4.11760e+00  3.51687e-01 -6.05574e+00  7.26748e+01  6.50024e+05 -7.07874e+05  4.13348e+02  0.00000e+00 -5.74367e+04 -4.45380e+02 -5.78820e+04  3.51696e-01  1.00000e+00  6.14929e+00  0.00000e+00  1.13181e+01 
 8.80092e-03  7.52587e-03  0.00000e+00  3.47944e+00  4.64320e-04  3.60106e+02  3.60056e+02  3.97446e+00  4.04001e+00  3.59033e-01 -1.50298e+01  7.50492e+01  7.12748e+05 -7.76589e+05  4.18598e+02  0.00000e+00 -6.34228e+04 -1.10845e+03 -6.45312e+04  3.59051e-01  1.00000e+00  1.51300e+01  0.00000e+00  1.29945e+01 
 9.00573e-03  7.76439e-03 -1.17014e-20  3.47944e+00  4.46967e-04  3.60129e+02  3.60057e+02  3.88111e+00  3.94582e+00  3.66527e-01 -2.64555e+01  7.79635e+01  7.90871e+05 -8.64858e+05  4.25155e+02  0.00000e+00 -7.35612e+04 -1.98035e+03 -7.55415e+04  3.66545e-01  1.00000e+00  2.65636e+01  0.00000e+00  1.50479e+01 
 9.21216e-03  8.00291e-03  0.00000e+00  3.47944e+00  4.26533e-04  3.60155e+02  3.60057e+02  3.78912e+00  3.85250e+00  3.73850e-01 -4.17892e+01  8.16992e+01  8.96263e+05 -9.83094e+05  4.34116e+02  0.00000e+00 -8.63969e+04 -3.20974e+03 -8.96067e+04  3.73878e-01  1.00000e+00  4.19070e+01  0.00000e+00  1.77796e+01 
 9.42012e-03  8.24144e-03  0.00000e+00  3.47944e+00  4.03143e-04  3.60187e+02  3.60058e+02  3.66243e+00  3.72231e+00  3.81418e-01 -6.35472e+01  8.64400e+01  1.03658e+06 -1.14595e+06  4.45331e+02  0.00000e+00 -1.08920e+05 -5.05795e+03 -1.13978e+05  3.81442e-01  1.00000e+00  6.36770e+01  0.00000e+00  2.13556e+01 
 9.62949e-03  8.47996e-03  0.00000e+00  3.47944e+00  3.75288e-04  3.60227e+02  3.60058e+02  3.54649e+00  3.60075e+00  3.89024e-01 -9.71650e+01  9.28566e+01  1.24619e+06 -1.38577e+06  4.60766e+02  0.00000e+00 -1.39118e+05 -8.14096e+03 -1.47259e+05  3.89058e-01  1.00000e+00  9.73107e+01  0.00000e+00  2.67230e+01 
 9.84019e-03  8.71849e-03  0.00000e+00  3.47944e+00  3.43053e-04  3.60285e+02  3.60059e+02  3.35729e+00  3.40558e+00  3.96967e-01 -1.54569e+02  1.01583e+02  1.56221e+06 -1.75659e+06  4.77782e+02  0.00000e+00 -1.93895e+05 -1.38788e+04 -2.07774e+05  3.96995e-01  1.00000e+00  1.54736e+02  0.00000e+00  3.47576e+01 
 1.00521e-02  8.95702e-03  0.00000e+00  3.47944e+00  3.03374e-04  3.60378e+02  3.60059e+02  3.17991e+00  3.22226e+00  4.05049e-01 -2.71292e+02  1.14871e+02  2.13794e+06 -2.40872e+06  5.06384e+02  0.00000e+00 -2.70280e+05 -2.69827e+04 -2.97262e+05  4.05079e-01  1.00000e+00  2.71492e+02  0.00000e+00  4.98325e+01 
 1.02653e-02  9.19555e-03  0.00000e+00  3.47944e+00  2.56491e-04  3.60562e+02  3.60060e+02  2.83317e+00  2.86851e+00  4.14431e-01 -5.69333e+02  1.35869e+02  3.30991e+06 -3.67145e+06  5.30862e+02  0.00000e+00 -3.61006e+05 -6.54321e+04 -4.26438e+05  4.14447e-01  1.00000e+00  5.69583e+02  0.00000e+00  8.24545e+01 
 1.04795e-02  9.43408e-03  0.00000e+00  3.47944e+00  2.04000e-04  3.61099e+02  3.60061e+02  2.36082e+00  2.38252e+00  4.25732e-01 -5.09659e+03  1.70833e+02  6.59495e+06 -5.97265e+06  5.72676e+02  9.85220e+05  1.60809e+06 -1.61584e+06 -7.75668e+03  4.25816e-01  1.00000e+00  5.09693e+03  3.36331e+03  2.09000e+02 
