# Code_Saturne plot output (1D profile)
#
# Iteration output: 3729
# Time output:      2.30002e+01
#
#COLUMN_TITLES: Distance | X | Y | Z | diameter_Field2 | temp_Field1 | temp_Field2 | Velocity_Field1[Z] | Velocity_Field2[Z] | vol_f_Field2 | mass_trans_Field1 | Xd_Field2 | BK | COAL | COMP | NUCL | W1 | MT | SMBR | ALPBB | CONDNUM | GAMA | GAMANUC | epsilon_Field1
 4.56474e-03  1.39645e-04  0.00000e+00  3.47944e+00  2.37005e-05  3.58658e+02  3.60049e+02  4.19016e+00  4.19185e+00  2.13894e-03  6.95380e+01  1.47062e+03  2.25641e-80 -2.51437e+05  6.64162e+03  0.00000e+00 -2.44795e+05  1.70002e+07  1.67554e+07  2.13675e-03  1.00000e+00 -6.96901e+01  0.00000e+00  2.74146e-01 
 4.57812e-03  3.76525e-04  4.25872e-21  3.47944e+00  3.27293e-05  3.58662e+02  3.60049e+02  4.18986e+00  4.19259e+00  2.72078e-03  5.90085e+01  1.06493e+03  7.42105e-43 -1.86078e+05  4.75161e+03  0.00000e+00 -1.81327e+05  8.20984e+06  8.02851e+06  2.71884e-03  1.00000e+00 -5.91381e+01  0.00000e+00  2.76781e-01 
 4.60371e-03  6.13858e-04  0.00000e+00  3.47944e+00  4.14270e-05  3.58672e+02  3.60049e+02  4.18877e+00  4.19266e+00  3.46485e-03  5.50041e+01  8.41345e+02  9.35253e-26 -1.59983e+05  3.76426e+03  0.00000e+00 -1.56219e+05  4.74676e+06  4.59054e+06  3.46306e-03  1.00000e+00 -5.51257e+01  0.00000e+00  2.81936e-01 
 4.64138e-03  8.51483e-04  0.00000e+00  3.47944e+00  4.97040e-05  3.58686e+02  3.60049e+02  4.18707e+00  4.19222e+00  4.28434e-03  5.27041e+01  7.01238e+02  1.91706e-16 -1.46507e+05  3.14653e+03  0.00000e+00 -1.43360e+05  3.06551e+06  2.92215e+06  4.28257e-03  1.00000e+00 -5.28218e+01  0.00000e+00  2.89670e-01 
 4.69084e-03  1.08931e-03  0.00000e+00  3.47944e+00  5.77154e-05  3.58704e+02  3.60049e+02  4.18472e+00  4.19141e+00  5.21136e-03  5.07051e+01  6.03901e+02  1.16782e-10 -1.39802e+05  2.71253e+03  0.00000e+00 -1.37090e+05  2.08798e+06  1.95089e+06  5.20956e-03  1.00000e+00 -5.08200e+01  0.00000e+00  3.00088e-01 
 4.75174e-03  1.32727e-03  1.05001e-20  3.47944e+00  6.54208e-05  3.58728e+02  3.60049e+02  4.18173e+00  4.19002e+00  6.34910e-03  5.04220e+01  5.32772e+02  8.32730e-07 -1.39508e+05  2.39326e+03  0.00000e+00 -1.37114e+05  1.50346e+06  1.36635e+06  6.34730e-03  1.00000e+00 -5.05382e+01  0.00000e+00  3.13372e-01 
 4.82366e-03  1.56534e-03  0.00000e+00  3.47944e+00  7.28365e-05  3.58756e+02  3.60049e+02  4.17810e+00  4.18793e+00  7.75938e-03  5.15526e+01  4.78529e+02  4.30710e-04 -1.44281e+05  2.15049e+03  0.00000e+00 -1.42131e+05  1.12972e+06  9.87590e+05  7.75753e-03  1.00000e+00 -5.16740e+01  0.00000e+00  3.29763e-01 
 4.90611e-03  1.80349e-03  8.81027e-21  3.47944e+00  8.01039e-05  3.58789e+02  3.60049e+02  4.17378e+00  4.18517e+00  9.48282e-03  5.34909e+01  4.35115e+02  4.45847e-02 -1.52678e+05  1.95590e+03  0.00000e+00 -1.50722e+05  8.72156e+05  7.21434e+05  9.48082e-03  1.00000e+00 -5.36201e+01  0.00000e+00  3.49533e-01 
 4.99859e-03  2.04170e-03  0.00000e+00  3.47944e+00  8.73207e-05  3.58827e+02  3.60049e+02  4.16875e+00  4.18168e+00  1.15707e-02  5.60051e+01  3.99154e+02  1.57542e+00 -1.64071e+05  1.79440e+03  0.00000e+00 -1.62275e+05  6.86557e+05  5.24281e+05  1.15684e-02  1.00000e+00 -5.61445e+01  0.00000e+00  3.73008e-01 
 5.10055e-03  2.27996e-03  7.58893e-21  3.47944e+00  9.45211e-05  3.58869e+02  3.60049e+02  4.16298e+00  4.17745e+00  1.40819e-02  5.89725e+01  3.68747e+02  2.57529e+01 -1.78320e+05  1.65760e+03  0.00000e+00 -1.76637e+05  5.48796e+05  3.72159e+05  1.40794e-02  1.00000e+00 -5.91244e+01  0.00000e+00  4.00691e-01 
 5.21143e-03  2.51826e-03  7.09702e-21  3.47944e+00  1.01680e-04  3.58915e+02  3.60049e+02  4.15644e+00  4.17240e+00  1.70863e-02  6.23459e+01  3.42785e+02  2.35243e+02 -1.95653e+05  1.54051e+03  0.00000e+00 -1.93878e+05  4.44543e+05  2.50665e+05  1.70835e-02  1.00000e+00 -6.25130e+01  0.00000e+00  4.33245e-01 
 5.33068e-03  2.75659e-03  1.33300e-20  3.47944e+00  1.08711e-04  3.58965e+02  3.60049e+02  4.14909e+00  4.16648e+00  2.06598e-02  6.61234e+01  3.20614e+02  1.36249e+03 -2.16585e+05  1.44020e+03  0.00000e+00 -2.13782e+05  3.64744e+05  1.50962e+05  2.06568e-02  1.00000e+00 -6.63086e+01  0.00000e+00  4.71444e-01 
 5.45775e-03  2.99495e-03  1.25651e-20  3.47944e+00  1.15470e-04  3.59019e+02  3.60049e+02  4.14086e+00  4.15957e+00  2.48837e-02  7.03320e+01  3.01849e+02  5.47844e+03 -2.41938e+05  1.35499e+03  0.00000e+00 -2.35105e+05  3.03300e+05  6.81951e+04  2.48798e-02  1.00000e+00 -7.05390e+01  0.00000e+00  5.16120e-01 
 5.59212e-03  3.23333e-03  0.00000e+00  3.47944e+00  1.21758e-04  3.59075e+02  3.60049e+02  4.13169e+00  4.15156e+00  2.98503e-02  7.50534e+01  2.86260e+02  1.64395e+04 -2.73005e+05  1.28380e+03  0.00000e+00 -2.55282e+05  2.55933e+05  6.50619e+02  2.98440e-02  1.00000e+00 -7.52869e+01  0.00000e+00  5.68353e-01 
 5.73326e-03  3.47172e-03  0.00000e+00  3.47944e+00  1.27366e-04  3.59134e+02  3.60049e+02  4.12149e+00  4.14233e+00  3.56528e-02  8.03780e+01  2.73657e+02  3.91026e+04 -3.11489e+05  1.22582e+03  0.00000e+00 -2.71161e+05  2.19426e+05 -5.17340e+04  3.56446e-02  1.00000e+00 -8.06439e+01  0.00000e+00  6.29391e-01 
 5.88069e-03  3.71014e-03 -5.35987e-21  3.47944e+00  1.32129e-04  3.59196e+02  3.60049e+02  4.11016e+00  4.13176e+00  4.23953e-02  8.63650e+01  2.63792e+02  7.77109e+04 -3.59513e+05  1.17996e+03  0.00000e+00 -2.80622e+05  1.91163e+05 -8.94588e+04  4.23874e-02  1.00000e+00 -8.66709e+01  0.00000e+00  7.00766e-01 
 6.03395e-03  3.94857e-03  5.10973e-21  3.47944e+00  1.35981e-04  3.59258e+02  3.60049e+02  4.09760e+00  4.11973e+00  5.01811e-02  9.29917e+01  2.56319e+02  1.34975e+05 -4.19388e+05  1.14461e+03  0.00000e+00 -2.83268e+05  1.69009e+05 -1.14260e+05  5.01738e-02  1.00000e+00 -9.33466e+01  0.00000e+00  7.84381e-01 
 6.19261e-03  4.18701e-03  0.00000e+00  3.47944e+00  1.38965e-04  3.59322e+02  3.60049e+02  4.08367e+00  4.10612e+00  5.91084e-02  1.00124e+02  2.50816e+02  2.12379e+05 -4.93505e+05  1.11782e+03  0.00000e+00 -2.80008e+05  1.51219e+05 -1.28788e+05  5.91000e-02  1.00000e+00 -1.00538e+02  0.00000e+00  8.82400e-01 
 6.35626e-03  4.42546e-03  0.00000e+00  3.47944e+00  1.41200e-04  3.59385e+02  3.60049e+02  4.06820e+00  4.09083e+00  6.92605e-02  1.06578e+02  2.46846e+02  3.11109e+05 -5.84259e+05  1.09751e+03  0.00000e+00 -2.72052e+05  1.35252e+05 -1.36800e+05  6.92503e-02  1.00000e+00 -1.07061e+02  0.00000e+00  9.97480e-01 
 6.52453e-03  4.66392e-03 -8.96437e-21  3.47944e+00  1.42829e-04  3.59448e+02  3.60050e+02  4.05100e+00  4.07368e+00  8.07016e-02  1.12142e+02  2.44031e+02  4.32300e+05 -6.94080e+05  1.08194e+03  0.00000e+00 -2.60698e+05  1.20800e+05 -1.39899e+05  8.06894e-02  1.00000e+00 -1.12701e+02  0.00000e+00  1.13270e+00 
 6.69707e-03  4.90238e-03  1.72236e-20  3.47944e+00  1.43987e-04  3.59510e+02  3.60050e+02  4.03184e+00  4.05441e+00  9.34544e-02  1.16842e+02  2.42068e+02  5.77175e+05 -8.25310e+05  1.06967e+03  0.00000e+00 -2.47065e+05  1.07871e+05 -1.39194e+05  9.34407e-02  1.00000e+00 -1.17489e+02  0.00000e+00  1.29177e+00 
 6.87356e-03  5.14086e-03  8.28595e-21  3.47944e+00  1.44814e-04  3.59570e+02  3.60050e+02  4.01043e+00  4.03275e+00  1.07517e-01  1.20259e+02  2.40685e+02  7.46948e+05 -9.80015e+05  1.05938e+03  0.00000e+00 -2.32007e+05  9.60156e+04 -1.35992e+05  1.07503e-01  1.00000e+00 -1.21005e+02  0.00000e+00  1.47907e+00 
 7.05370e-03  5.37934e-03 -1.59677e-20  3.47944e+00  1.45436e-04  3.59627e+02  3.60050e+02  3.98644e+00  4.00843e+00  1.22835e-01  1.22003e+02  2.39656e+02  9.42555e+05 -1.15968e+06  1.05006e+03  0.00000e+00 -2.16071e+05  8.49624e+04 -1.31109e+05  1.22820e-01  1.00000e+00 -1.22858e+02  0.00000e+00  1.69980e+00 
 7.23722e-03  5.61783e-03  0.00000e+00  3.47944e+00  1.45962e-04  3.59681e+02  3.60050e+02  3.95948e+00  3.98106e+00  1.39305e-01  1.21746e+02  2.38793e+02  1.16408e+06 -1.36496e+06  1.04073e+03  0.00000e+00 -1.99841e+05  7.45633e+04 -1.25277e+05  1.39288e-01  1.00000e+00 -1.22720e+02  0.00000e+00  1.95988e+00 
 7.42387e-03  5.85632e-03  0.00000e+00  3.47944e+00  1.46477e-04  3.59732e+02  3.60050e+02  3.92912e+00  3.95026e+00  1.56767e-01  1.19289e+02  2.37954e+02  1.41068e+06 -1.59558e+06  1.03062e+03  0.00000e+00 -1.83865e+05  6.47693e+04 -1.19096e+05  1.56750e-01  1.00000e+00 -1.20389e+02  0.00000e+00  2.26625e+00 
 7.61342e-03  6.09482e-03  0.00000e+00  3.47944e+00  1.47047e-04  3.59779e+02  3.60050e+02  3.89491e+00  3.91557e+00  1.75013e-01  1.14568e+02  2.37033e+02  1.68026e+06 -1.85006e+06  1.01914e+03  0.00000e+00 -1.68774e+05  5.55875e+04 -1.13187e+05  1.74996e-01  1.00000e+00 -1.15797e+02  0.00000e+00  2.62670e+00 
 7.80566e-03  6.33332e-03  0.00000e+00  3.47944e+00  1.47707e-04  3.59822e+02  3.60050e+02  3.85638e+00  3.87653e+00  1.93803e-01  1.07701e+02  2.35974e+02  1.96990e+06 -2.12623e+06  1.00597e+03  0.00000e+00 -1.55325e+05  4.70672e+04 -1.08258e+05  1.93785e-01  1.00000e+00 -1.09064e+02  0.00000e+00  3.05034e+00 
 8.00039e-03  6.57182e-03  0.00000e+00  3.47944e+00  1.48458e-04  3.59861e+02  3.60050e+02  3.81304e+00  3.83266e+00  2.12830e-01  9.89360e+01  2.34781e+02  2.27627e+06 -2.42111e+06  9.90933e+02  0.00000e+00 -1.43855e+05  3.92672e+04 -1.04588e+05  2.12810e-01  1.00000e+00 -1.00431e+02  0.00000e+00  3.54764e+00 
 8.19744e-03  6.81033e-03  1.31016e-20  3.47944e+00  1.49266e-04  3.59896e+02  3.60050e+02  3.76450e+00  3.78358e+00  2.31875e-01  8.86873e+01  2.33511e+02  2.59691e+06 -2.73345e+06  9.74222e+02  0.00000e+00 -1.35564e+05  3.22351e+04 -1.03329e+05  2.31852e-01  1.00000e+00 -9.03116e+01  0.00000e+00  4.13211e+00 
 8.39664e-03  7.04884e-03  0.00000e+00  3.47944e+00  1.50042e-04  3.59927e+02  3.60050e+02  3.71019e+00  3.72869e+00  2.50649e-01  7.73860e+01  2.32303e+02  2.93177e+06 -3.06339e+06  9.56274e+02  0.00000e+00 -1.30662e+05  2.59952e+04 -1.04667e+05  2.50626e-01  1.00000e+00 -7.91368e+01  0.00000e+00  4.82164e+00 
 8.59784e-03  7.28736e-03  0.00000e+00  3.47944e+00  1.50666e-04  3.59954e+02  3.60050e+02  3.64978e+00  3.66767e+00  2.69029e-01  6.54716e+01  2.31343e+02  3.28407e+06 -3.41593e+06  9.37674e+02  0.00000e+00 -1.30922e+05  2.05254e+04 -1.10397e+05  2.69006e-01  1.00000e+00 -6.73467e+01  0.00000e+00  5.64151e+00 
 8.80092e-03  7.52587e-03  0.00000e+00  3.47944e+00  1.50937e-04  3.59979e+02  3.60051e+02  3.58226e+00  3.59950e+00  2.86800e-01  5.32605e+01  2.30929e+02  3.66408e+06 -3.80148e+06  9.19413e+02  0.00000e+00 -1.36487e+05  1.57697e+04 -1.20717e+05  2.86778e-01  1.00000e+00 -5.52606e+01  0.00000e+00  6.63097e+00 
 9.00573e-03  7.76439e-03 -1.17014e-20  3.47944e+00  1.50637e-04  3.60001e+02  3.60051e+02  3.50699e+00  3.52350e+00  3.04010e-01  4.09052e+01  2.31388e+02  4.08882e+06 -4.24049e+06  9.02370e+02  0.00000e+00 -1.50766e+05  1.16089e+04 -1.39157e+05  3.03988e-01  1.00000e+00 -4.30364e+01  0.00000e+00  7.85040e+00 
 9.21216e-03  8.00291e-03  0.00000e+00  3.47944e+00  1.49438e-04  3.60020e+02  3.60051e+02  3.42185e+00  3.43755e+00  3.20588e-01  2.82760e+01  2.33247e+02  4.59170e+06 -4.76845e+06  8.87722e+02  0.00000e+00 -1.75858e+05  7.87809e+03 -1.67980e+05  3.20563e-01  1.00000e+00 -3.05531e+01  0.00000e+00  9.40378e+00 
 9.42012e-03  8.24144e-03  0.00000e+00  3.47944e+00  1.46999e-04  3.60039e+02  3.60051e+02  3.32453e+00  3.33924e+00  3.36804e-01  1.47841e+01  2.37118e+02  5.22450e+06 -5.44606e+06  8.76291e+02  0.00000e+00 -2.20684e+05  4.30026e+03 -2.16384e+05  3.36773e-01  1.00000e+00 -1.72348e+01  0.00000e+00  1.14671e+01 
 9.62949e-03  8.47996e-03  0.00000e+00  3.47944e+00  1.42783e-04  3.60057e+02  3.60052e+02  3.20955e+00  3.22282e+00  3.52636e-01 -1.04699e+00  2.44121e+02  6.09192e+06 -6.38556e+06  8.70531e+02  0.00000e+00 -2.92778e+05  3.98920e+02 -2.92379e+05  3.52604e-01  1.00000e+00 -1.62597e+00  0.00000e+00  1.43849e+01 
 9.84019e-03  8.71849e-03  0.00000e+00  3.47944e+00  1.36213e-04  3.60078e+02  3.60052e+02  3.06855e+00  3.08053e+00  3.68241e-01 -4.82030e+01  2.55898e+02  7.37394e+06 -7.79219e+06  8.71600e+02  0.00000e+00 -4.17377e+05 -1.04679e+04 -4.27845e+05  3.68183e-01  1.00000e+00  4.25010e+01  0.00000e+00  1.87836e+01 
 1.00521e-02  8.95702e-03  0.00000e+00  3.47944e+00  1.26063e-04  3.60109e+02  3.60053e+02  2.89752e+00  2.90838e+00  3.83592e-01 -1.39591e+02  2.76503e+02  9.63945e+06 -1.02400e+07  8.82513e+02  0.00000e+00 -5.99710e+05 -3.40144e+04 -6.33725e+05  3.83523e-01  1.00000e+00  1.33140e+02  0.00000e+00  2.66772e+01 
 1.02653e-02  9.19555e-03  0.00000e+00  3.47944e+00  1.11617e-04  3.60182e+02  3.60053e+02  2.64373e+00  2.65284e+00  3.99585e-01 -4.24338e+02  3.12294e+02  1.43902e+07 -1.51711e+07  8.99751e+02  0.00000e+00 -7.79923e+05 -1.15430e+05 -8.95353e+05  3.99503e-01  1.00000e+00  4.16720e+02  0.00000e+00  4.43495e+01 
 1.04795e-02  9.43408e-03  0.00000e+00  3.47944e+00  9.37510e-05  3.60500e+02  3.60054e+02  2.22111e+00  2.22618e+00  4.20091e-01 -5.18860e+03  3.71813e+02  2.81507e+07 -2.73022e+07  9.36529e+02  2.46947e+06  3.31886e+06 -3.46926e+06 -1.50402e+05  4.20019e-01  1.00000e+00  5.17919e+03  3.12561e+03  1.11408e+02 
