# Code_Saturne plot output (1D profile)
#
# Iteration output: 4768
# Time output:      2.30001e+01
#
#COLUMN_TITLES: Distance | X | Y | Z | diameter_Field2 | temp_Field1 | temp_Field2 | Velocity_Field1[Z] | Velocity_Field2[Z] | vol_f_Field2 | mass_trans_Field1 | Xd_Field2 | BK | COAL | COMP | NUCL | W1 | MT | SMBR | ALPBB | CONDNUM | GAMA | GAMANUC | epsilon_Field1
 4.56474e-03  1.39645e-04  0.00000e+00  3.47944e+00  3.20658e-04  3.59795e+02  3.60056e+02  5.08156e+00  5.15486e+00  1.80895e-01  3.64700e+01  1.08654e+02  3.29312e+05 -5.83759e+05  7.76746e+02  0.00000e+00 -2.53670e+05  3.99372e+03 -2.49677e+05  1.80930e-01  1.00000e+00 -3.63821e+01  0.00000e+00  9.94153e-01 
 4.57812e-03  3.76525e-04  4.25872e-21  3.47944e+00  3.30982e-04  3.59796e+02  3.60056e+02  5.08059e+00  5.15655e+00  1.81974e-01  3.50994e+01  1.05264e+02  3.26726e+05 -5.56602e+05  7.52549e+02  0.00000e+00 -2.29124e+05  3.70167e+03 -2.25422e+05  1.82009e-01  1.00000e+00 -3.50145e+01  0.00000e+00  1.00561e+00 
 4.60371e-03  6.13858e-04  0.00000e+00  3.47944e+00  3.39931e-04  3.59798e+02  3.60056e+02  5.07823e+00  5.15626e+00  1.83757e-01  3.40588e+01  1.02493e+02  3.26772e+05 -5.39016e+05  7.32821e+02  0.00000e+00 -2.11511e+05  3.46342e+03 -2.08048e+05  1.83791e-01  1.00000e+00 -3.39760e+01  0.00000e+00  1.02806e+00 
 4.64138e-03  8.51483e-04  0.00000e+00  3.47944e+00  3.48779e-04  3.59800e+02  3.60056e+02  5.07474e+00  5.15465e+00  1.86322e-01  3.31472e+01  9.98932e+01  3.28579e+05 -5.26405e+05  7.14255e+02  0.00000e+00 -1.97112e+05  3.24003e+03 -1.93872e+05  1.86350e-01  1.00000e+00 -3.30658e+01  0.00000e+00  1.06186e+00 
 4.69084e-03  1.08931e-03  0.00000e+00  3.47944e+00  3.58440e-04  3.59803e+02  3.60056e+02  5.07001e+00  5.15185e+00  1.89687e-01  3.22347e+01  9.72008e+01  3.31300e+05 -5.15829e+05  6.94951e+02  0.00000e+00 -1.83834e+05  3.01153e+03 -1.80823e+05  1.89711e-01  1.00000e+00 -3.21546e+01  0.00000e+00  1.10752e+00 
 4.75174e-03  1.32727e-03  1.05001e-20  3.47944e+00  3.69360e-04  3.59808e+02  3.60056e+02  5.06398e+00  5.14791e+00  1.93839e-01  3.12625e+01  9.43269e+01  3.34272e+05 -5.05856e+05  6.74289e+02  0.00000e+00 -1.70910e+05  2.77365e+03 -1.68136e+05  1.93858e-01  1.00000e+00 -3.11835e+01  0.00000e+00  1.16569e+00 
 4.82366e-03  1.56534e-03  0.00000e+00  3.47944e+00  3.81766e-04  3.59813e+02  3.60056e+02  5.05657e+00  5.14282e+00  1.98695e-01  3.01948e+01  9.12616e+01  3.36933e+05 -4.95513e+05  6.52213e+02  0.00000e+00 -1.57928e+05  2.52856e+03 -1.55399e+05  1.98703e-01  1.00000e+00 -3.01171e+01  0.00000e+00  1.23714e+00 
 4.90611e-03  1.80349e-03  8.81027e-21  3.47944e+00  3.95746e-04  3.59819e+02  3.60056e+02  5.04774e+00  5.13649e+00  2.04255e-01  2.90316e+01  8.80379e+01  3.38795e+05 -4.84518e+05  6.28870e+02  0.00000e+00 -1.45095e+05  2.28145e+03 -1.42813e+05  2.04250e-01  1.00000e+00 -2.89551e+01  0.00000e+00  1.32275e+00 
 4.99859e-03  2.04170e-03  0.00000e+00  3.47944e+00  4.11244e-04  3.59825e+02  3.60056e+02  5.03754e+00  5.12802e+00  2.10466e-01  2.76886e+01  8.47201e+01  3.39537e+05 -4.72718e+05  6.04802e+02  0.00000e+00 -1.32576e+05  2.03196e+03 -1.30544e+05  2.10451e-01  1.00000e+00 -2.76138e+01  0.00000e+00  1.42357e+00 
 5.10055e-03  2.27996e-03  7.58893e-21  3.47944e+00  4.28145e-04  3.59833e+02  3.60056e+02  5.02591e+00  5.11655e+00  2.17205e-01  2.62114e+01  8.13758e+01  3.39056e+05 -4.60124e+05  5.80363e+02  0.00000e+00 -1.20487e+05  1.79002e+03 -1.18697e+05  2.17208e-01  1.00000e+00 -2.61384e+01  0.00000e+00  1.54076e+00 
 5.21143e-03  2.51826e-03  7.09702e-21  3.47944e+00  4.46148e-04  3.59841e+02  3.60056e+02  5.01259e+00  5.10260e+00  2.24474e-01  2.47017e+01  7.80922e+01  3.37390e+05 -4.47026e+05  5.56127e+02  0.00000e+00 -1.09080e+05  1.56626e+03 -1.07513e+05  2.24482e-01  1.00000e+00 -2.46305e+01  0.00000e+00  1.67547e+00 
 5.33068e-03  2.75659e-03  1.33300e-20  3.47944e+00  4.64832e-04  3.59850e+02  3.60056e+02  4.99743e+00  5.08648e+00  2.32146e-01  2.31987e+01  7.49534e+01  3.34849e+05 -4.33785e+05  5.32737e+02  0.00000e+00 -9.84029e+04  1.36503e+03 -9.70379e+04  2.32156e-01  1.00000e+00 -2.31292e+01  0.00000e+00  1.82914e+00 
 5.45775e-03  2.99495e-03  1.25651e-20  3.47944e+00  4.83672e-04  3.59859e+02  3.60056e+02  4.98033e+00  5.06826e+00  2.40182e-01  2.17396e+01  7.20338e+01  3.31855e+05 -4.20997e+05  5.10809e+02  0.00000e+00 -8.86311e+04  1.18807e+03 -8.74431e+04  2.40192e-01  1.00000e+00 -2.16716e+01  0.00000e+00  2.00345e+00 
 5.59212e-03  3.23333e-03  0.00000e+00  3.47944e+00  5.02038e-04  3.59869e+02  3.60056e+02  4.96120e+00  5.04796e+00  2.48448e-01  2.03454e+01  6.93987e+01  3.28960e+05 -4.09177e+05  4.90795e+02  0.00000e+00 -7.97268e+04  1.03542e+03 -7.86914e+04  2.48459e-01  1.00000e+00 -2.02786e+01  0.00000e+00  2.20009e+00 
 5.73326e-03  3.47172e-03  0.00000e+00  3.47944e+00  5.19310e-04  3.59880e+02  3.60056e+02  4.93992e+00  5.02547e+00  2.56965e-01  1.90348e+01  6.70907e+01  3.26620e+05 -3.99005e+05  4.72994e+02  0.00000e+00 -7.19116e+04  9.05306e+02 -7.10063e+04  2.56976e-01  1.00000e+00 -1.89688e+01  0.00000e+00  2.42066e+00 
 5.88069e-03  3.71014e-03 -5.35987e-21  3.47944e+00  5.34875e-04  3.59892e+02  3.60056e+02  4.91644e+00  5.00077e+00  2.65588e-01  1.78075e+01  6.51384e+01  3.25416e+05 -3.90892e+05  4.57517e+02  0.00000e+00 -6.50189e+04  7.95427e+02 -6.42235e+04  2.65600e-01  1.00000e+00 -1.77420e+01  0.00000e+00  2.66807e+00 
 6.03395e-03  3.94857e-03  5.10973e-21  3.47944e+00  5.48265e-04  3.59903e+02  3.60056e+02  4.89063e+00  4.97375e+00  2.74292e-01  1.66580e+01  6.35477e+01  3.25616e+05 -3.85219e+05  4.44504e+02  0.00000e+00 -5.91583e+04  7.02702e+02 -5.84556e+04  2.74305e-01  1.00000e+00 -1.65925e+01  0.00000e+00  2.94310e+00 
 6.19261e-03  4.18701e-03  0.00000e+00  3.47944e+00  5.59113e-04  3.59916e+02  3.60056e+02  4.86246e+00  4.94438e+00  2.82889e-01  1.55659e+01  6.23149e+01  3.27638e+05 -3.82125e+05  4.33799e+02  0.00000e+00 -5.40531e+04  6.24140e+02 -5.34290e+04  2.82903e-01  1.00000e+00 -1.54999e+01  0.00000e+00  3.24898e+00 
 6.35626e-03  4.42546e-03  0.00000e+00  3.47944e+00  5.67283e-04  3.59928e+02  3.60056e+02  4.83184e+00  4.91256e+00  2.91416e-01  1.45170e+01  6.14176e+01  3.31567e+05 -3.81823e+05  4.25350e+02  0.00000e+00 -4.98309e+04  5.56717e+02 -4.92741e+04  2.91430e-01  1.00000e+00 -1.44502e+01  0.00000e+00  3.58763e+00 
 6.52453e-03  4.66392e-03 -8.96437e-21  3.47944e+00  5.72725e-04  3.59941e+02  3.60056e+02  4.79871e+00  4.87823e+00  2.99804e-01  1.34855e+01  6.08342e+01  3.37609e+05 -3.84389e+05  4.18874e+02  0.00000e+00 -4.63611e+04  4.97699e+02 -4.58634e+04  2.99817e-01  1.00000e+00 -1.34175e+01  0.00000e+00  3.96333e+00 
 6.69707e-03  4.90238e-03  1.72236e-20  3.47944e+00  5.75563e-04  3.59954e+02  3.60056e+02  4.76289e+00  4.84125e+00  3.08072e-01  1.24502e+01  6.05345e+01  3.45765e+05 -3.89863e+05  4.14211e+02  0.00000e+00 -4.36835e+04  4.44711e+02 -4.32388e+04  3.08085e-01  1.00000e+00 -1.23805e+01  0.00000e+00  4.37906e+00 
 6.87356e-03  5.14086e-03  8.28595e-21  3.47944e+00  5.75906e-04  3.59968e+02  3.60056e+02  4.72441e+00  4.80159e+00  3.16129e-01  1.13828e+01  6.04986e+01  3.56238e+05 -3.98267e+05  4.11115e+02  0.00000e+00 -4.16179e+04  3.95708e+02 -4.12222e+04  3.16141e-01  1.00000e+00 -1.13110e+01  0.00000e+00  4.84064e+00 
 7.05370e-03  5.37934e-03 -1.59677e-20  3.47944e+00  5.73995e-04  3.59982e+02  3.60057e+02  4.68305e+00  4.75911e+00  3.24039e-01  1.02614e+01  6.07002e+01  3.69016e+05 -4.09690e+05  4.09413e+02  0.00000e+00 -4.02650e+04  3.48848e+02 -3.99162e+04  3.24051e-01  1.00000e+00 -1.01870e+01  0.00000e+00  5.35265e+00 
 7.23722e-03  5.61783e-03  0.00000e+00  3.47944e+00  5.69951e-04  3.59996e+02  3.60057e+02  4.63877e+00  4.71372e+00  3.31696e-01  9.05796e+00  6.11312e+01  3.84455e+05 -4.24267e+05  4.08929e+02  0.00000e+00 -3.94028e+04  3.02572e+02 -3.91003e+04  3.31708e-01  1.00000e+00 -8.98061e+00  0.00000e+00  5.92481e+00 
 7.42387e-03  5.85632e-03  0.00000e+00  3.47944e+00  5.64028e-04  3.60010e+02  3.60057e+02  4.59115e+00  4.66505e+00  3.39216e-01  7.74746e+00  6.17733e+01  4.02581e+05 -4.42249e+05  4.09555e+02  0.00000e+00 -3.92580e+04  2.55233e+02 -3.90027e+04  3.39228e-01  1.00000e+00 -7.66672e+00  0.00000e+00  6.56369e+00 
 7.61342e-03  6.09482e-03  0.00000e+00  3.47944e+00  5.56266e-04  3.60024e+02  3.60057e+02  4.54028e+00  4.61313e+00  3.46454e-01  6.29880e+00  6.26356e+01  4.24068e+05 -4.64012e+05  4.11185e+02  0.00000e+00 -3.95323e+04  2.05383e+02 -3.93269e+04  3.46467e-01  1.00000e+00 -6.21420e+00  0.00000e+00  7.28610e+00 
 7.80566e-03  6.33332e-03  0.00000e+00  3.47944e+00  5.46897e-04  3.60039e+02  3.60057e+02  4.48527e+00  4.55713e+00  3.53598e-01  4.67719e+00  6.37089e+01  4.49020e+05 -4.90108e+05  4.13778e+02  0.00000e+00 -4.06747e+04  1.51125e+02 -4.05236e+04  3.53613e-01  1.00000e+00 -4.58819e+00  0.00000e+00  8.10190e+00 
 8.00039e-03  6.57182e-03  0.00000e+00  3.47944e+00  5.35836e-04  3.60054e+02  3.60058e+02  4.42667e+00  4.49753e+00  3.60468e-01  2.83930e+00  6.50244e+01  4.78662e+05 -5.21370e+05  4.17313e+02  0.00000e+00 -4.22907e+04  9.05331e+01 -4.22002e+04  3.60482e-01  1.00000e+00 -2.74531e+00  0.00000e+00  9.04164e+00 
 8.19744e-03  6.81033e-03  1.31016e-20  3.47944e+00  5.23288e-04  3.60069e+02  3.60058e+02  4.36233e+00  4.43225e+00  3.67274e-01  7.26289e-01  6.65840e+01  5.13341e+05 -5.58810e+05  4.21761e+02  0.00000e+00 -4.50476e+04  2.07676e+01 -4.50268e+04  3.67290e-01  1.00000e+00 -6.26612e-01  0.00000e+00  1.01225e+01 
 8.39664e-03  7.04884e-03  0.00000e+00  3.47944e+00  5.09031e-04  3.60085e+02  3.60058e+02  4.29435e+00  4.36333e+00  3.73860e-01 -4.05223e+00  6.84493e+01  5.55176e+05 -6.04206e+05  4.27355e+02  0.00000e+00 -4.86022e+04 -1.43612e+02 -4.87458e+04  3.73877e-01  1.00000e+00  4.29067e+00  0.00000e+00  1.13997e+01 
 8.59784e-03  7.28736e-03  0.00000e+00  3.47944e+00  4.93221e-04  3.60101e+02  3.60058e+02  4.21706e+00  4.28516e+00  3.80464e-01 -1.07855e+01  7.06439e+01  6.05235e+05 -6.59631e+05  4.33641e+02  0.00000e+00 -5.39622e+04 -3.74759e+02 -5.43370e+04  3.80481e-01  1.00000e+00  1.10404e+01  0.00000e+00  1.29120e+01 
 8.80092e-03  7.52587e-03  0.00000e+00  3.47944e+00  4.75370e-04  3.60119e+02  3.60059e+02  4.13747e+00  4.20468e+00  3.86888e-01 -1.91139e+01  7.32972e+01  6.68003e+05 -7.29166e+05  4.41442e+02  0.00000e+00 -6.07215e+04 -6.71507e+02 -6.13930e+04  3.86904e-01  1.00000e+00  1.93883e+01  0.00000e+00  1.47820e+01 
 9.00573e-03  7.76439e-03 -1.17014e-20  3.47944e+00  4.55595e-04  3.60139e+02  3.60059e+02  4.04013e+00  4.10632e+00  3.93465e-01 -2.98437e+01  7.64792e+01  7.45915e+05 -8.18034e+05  4.50507e+02  0.00000e+00 -7.16689e+04 -1.07105e+03 -7.27400e+04  3.93482e-01  1.00000e+00  3.01412e+01  0.00000e+00  1.70752e+01 
 9.21216e-03  8.00291e-03  0.00000e+00  3.47944e+00  4.32967e-04  3.60161e+02  3.60060e+02  3.94517e+00  4.00986e+00  3.99932e-01 -4.44032e+01  8.04769e+01  8.50418e+05 -9.36626e+05  4.62407e+02  0.00000e+00 -8.57458e+04 -1.64550e+03 -8.73913e+04  3.99947e-01  1.00000e+00  4.47295e+01  0.00000e+00  2.01270e+01 
 9.42012e-03  8.24144e-03  0.00000e+00  3.47944e+00  4.07515e-04  3.60189e+02  3.60060e+02  3.81585e+00  3.87707e+00  4.06670e-01 -6.53008e+01  8.55040e+01  9.90409e+05 -1.10015e+06  4.75706e+02  0.00000e+00 -1.09261e+05 -2.52400e+03 -1.11785e+05  4.06686e-01  1.00000e+00  6.56629e+01  0.00000e+00  2.41651e+01 
 9.62949e-03  8.47996e-03  0.00000e+00  3.47944e+00  3.77727e-04  3.60226e+02  3.60061e+02  3.69328e+00  3.74767e+00  4.13535e-01 -9.79694e+01  9.22479e+01  1.19942e+06 -1.34142e+06  4.95527e+02  0.00000e+00 -1.41502e+05 -4.01225e+03 -1.45514e+05  4.13548e-01  1.00000e+00  9.83792e+01  0.00000e+00  3.02351e+01 
 9.84019e-03  8.71849e-03  0.00000e+00  3.47944e+00  3.43668e-04  3.60279e+02  3.60061e+02  3.49450e+00  3.54256e+00  4.20597e-01 -1.54442e+02  1.01391e+02  1.51446e+06 -1.71845e+06  5.16527e+02  0.00000e+00 -2.03469e+05 -6.82816e+03 -2.10297e+05  4.20607e-01  1.00000e+00  1.54917e+02  0.00000e+00  3.91982e+01 
 1.00521e-02  8.95702e-03  0.00000e+00  3.47944e+00  3.01892e-04  3.60365e+02  3.60062e+02  3.31375e+00  3.35538e+00  4.27885e-01 -2.71427e+02  1.15423e+02  2.09477e+06 -2.39795e+06  5.52339e+02  0.00000e+00 -3.02629e+05 -1.34172e+04 -3.16046e+05  4.27888e-01  1.00000e+00  2.72004e+02  0.00000e+00  5.60286e+01 
 1.02653e-02  9.19555e-03  0.00000e+00  3.47944e+00  2.51754e-04  3.60541e+02  3.60063e+02  2.95563e+00  2.99019e+00  4.36005e-01 -5.80843e+02  1.38413e+02  3.31539e+06 -3.79747e+06  5.86727e+02  0.00000e+00 -4.81491e+05 -3.37599e+04 -5.15251e+05  4.36009e-01  1.00000e+00  5.81594e+02  0.00000e+00  9.28105e+01 
 1.04795e-02  9.43408e-03  0.00000e+00  3.47944e+00  1.91383e-04  3.61066e+02  3.60064e+02  2.46583e+00  2.48724e+00  4.47146e-01 -5.36795e+03  1.82078e+02  7.07131e+06 -7.15331e+06  6.63033e+02  1.40377e+06  1.32244e+06 -1.33697e+06 -1.45392e+04  4.47132e-01  1.00000e+00  5.36905e+03  3.45314e+03  2.35118e+02 
