# Code_Saturne plot output (1D profile)
#
# Iteration output: 2714
# Time output:      2.30002e+01
#
#COLUMN_TITLES: Distance | X | Y | Z | diameter_Field2 | temp_Field1 | temp_Field2 | Velocity_Field1[Z] | Velocity_Field2[Z] | vol_f_Field2 | mass_trans_Field1 | Xd_Field2 | BK | COAL | COMP | NUCL | W1 | MT | SMBR | ALPBB | CONDNUM | GAMA | GAMANUC | epsilon_Field1
 4.56474e-03  1.39645e-04  0.00000e+00  3.47944e+00  3.06319e-05  3.59519e+02  3.60050e+02  4.50898e+00  4.51213e+00  2.70172e-02  2.36765e+02  1.13775e+03  3.39226e-42 -2.26492e+06  6.33621e+03  0.00000e+00 -2.25858e+06  5.09234e+06  2.83376e+06  2.70125e-02  1.00000e+00 -2.36833e+02  0.00000e+00  3.35656e-01 
 4.57812e-03  3.76525e-04  4.25872e-21  3.47944e+00  5.10179e-05  3.59517e+02  3.60050e+02  4.50906e+00  4.51588e+00  2.83491e-02  1.19772e+02  6.83119e+02  3.57742e-13 -1.00411e+06  3.79440e+03  0.00000e+00 -1.00032e+06  1.47405e+06  4.73728e+05  2.83447e-02  1.00000e+00 -1.19808e+02  0.00000e+00  3.39208e-01 
 4.60371e-03  6.13858e-04  0.00000e+00  3.47944e+00  6.90223e-05  3.59518e+02  3.60050e+02  4.50821e+00  4.51887e+00  2.97920e-02  8.26023e+01  5.04928e+02  7.98068e-05 -6.34658e+05  2.80513e+03  0.00000e+00 -6.31852e+05  7.15012e+05  8.31592e+04  2.97880e-02  1.00000e+00 -8.26277e+01  0.00000e+00  3.46082e-01 
 4.64138e-03  8.51483e-04  0.00000e+00  3.47944e+00  8.44917e-05  3.59521e+02  3.60050e+02  4.50674e+00  4.52074e+00  3.17389e-02  6.66588e+01  4.12482e+02  2.92548e-01 -4.83115e+05  2.29248e+03  0.00000e+00 -4.80822e+05  4.42438e+05 -3.83834e+04  3.17351e-02  1.00000e+00 -6.66795e+01  0.00000e+00  3.56450e-01 
 4.69084e-03  1.08931e-03  0.00000e+00  3.47944e+00  9.82570e-05  3.59527e+02  3.60050e+02  4.50464e+00  4.52161e+00  3.41938e-02  5.82660e+01  3.54695e+02  2.54793e+01 -4.06901e+05  1.97198e+03  0.00000e+00 -4.04904e+05  3.08669e+05 -9.62347e+04  3.41905e-02  1.00000e+00 -5.82844e+01  0.00000e+00  3.70555e-01 
 4.75174e-03  1.32727e-03  1.05001e-20  3.47944e+00  1.10849e-04  3.59536e+02  3.60050e+02  4.50190e+00  4.52157e+00  3.71925e-02  5.34219e+01  3.14403e+02  4.16133e+02 -3.65357e+05  1.74835e+03  0.00000e+00 -3.63193e+05  2.30625e+05 -1.32568e+05  3.71900e-02  1.00000e+00 -5.34390e+01  0.00000e+00  3.88730e-01 
 4.82366e-03  1.56534e-03  0.00000e+00  3.47944e+00  1.22457e-04  3.59548e+02  3.60050e+02  4.49850e+00  4.52061e+00  4.07782e-02  5.06052e+01  2.84600e+02  2.75059e+03 -3.43668e+05  1.58273e+03  0.00000e+00 -3.39335e+05  1.80358e+05 -1.58977e+05  4.07776e-02  1.00000e+00 -5.06219e+01  0.00000e+00  4.11435e-01 
 4.90611e-03  1.80349e-03  8.81027e-21  3.47944e+00  1.33004e-04  3.59563e+02  3.60050e+02  4.49442e+00  4.51870e+00  4.50058e-02  4.91669e+01  2.62032e+02  1.04282e+04 -3.35869e+05  1.45706e+03  0.00000e+00 -3.23984e+05  1.46172e+05 -1.77812e+05  4.50081e-02  1.00000e+00 -4.91835e+01  0.00000e+00  4.39252e-01 
 4.99859e-03  2.04170e-03  0.00000e+00  3.47944e+00  1.42268e-04  3.59580e+02  3.60050e+02  4.48961e+00  4.51573e+00  4.99336e-02  4.87995e+01  2.44969e+02  2.73693e+04 -3.39568e+05  1.36175e+03  0.00000e+00 -3.10837e+05  1.22249e+05 -1.88588e+05  4.99354e-02  1.00000e+00 -4.88166e+01  0.00000e+00  4.72916e-01 
 5.10055e-03  2.27996e-03  7.58893e-21  3.47944e+00  1.50036e-04  3.59599e+02  3.60050e+02  4.48401e+00  4.51161e+00  5.56279e-02  4.93408e+01  2.32286e+02  5.59335e+04 -3.54073e+05  1.29058e+03  0.00000e+00 -2.96849e+05  1.05209e+05 -1.91640e+05  5.56293e-02  1.00000e+00 -4.93588e+01  0.00000e+00  5.13327e-01 
 5.21143e-03  2.51826e-03  7.09702e-21  3.47944e+00  1.56229e-04  3.59621e+02  3.60050e+02  4.47757e+00  4.50627e+00  6.21673e-02  5.06624e+01  2.23078e+02  9.64687e+04 -3.79459e+05  1.23845e+03  0.00000e+00 -2.81752e+05  9.28299e+04 -1.88922e+05  6.21704e-02  1.00000e+00 -5.06817e+01  0.00000e+00  5.61573e-01 
 5.33068e-03  2.75659e-03  1.33300e-20  3.47944e+00  1.60935e-04  3.59645e+02  3.60050e+02  4.47020e+00  4.49964e+00  6.96167e-02  5.21342e+01  2.16555e+02  1.48501e+05 -4.16042e+05  1.20098e+03  0.00000e+00 -2.66340e+05  8.28105e+04 -1.83530e+05  6.96205e-02  1.00000e+00 -5.21552e+01  0.00000e+00  6.18966e-01 
 5.45775e-03  2.99495e-03  1.25651e-20  3.47944e+00  1.64351e-04  3.59670e+02  3.60050e+02  4.46179e+00  4.49167e+00  7.80387e-02  5.39427e+01  2.12054e+02  2.11829e+05 -4.64469e+05  1.17446e+03  0.00000e+00 -2.51466e+05  7.48510e+04 -1.76615e+05  7.80405e-02  1.00000e+00 -5.39657e+01  0.00000e+00  6.87059e-01 
 5.59212e-03  3.23333e-03  0.00000e+00  3.47944e+00  1.66718e-04  3.59697e+02  3.60050e+02  4.45221e+00  4.48230e+00  8.74908e-02  5.59266e+01  2.09043e+02  2.86922e+05 -5.25673e+05  1.15588e+03  0.00000e+00 -2.37595e+05  6.82390e+04 -1.69356e+05  8.74920e-02  1.00000e+00 -5.59521e+01  0.00000e+00  7.67691e-01 
 5.73326e-03  3.47172e-03  0.00000e+00  3.47944e+00  1.68282e-04  3.59724e+02  3.60050e+02  4.44131e+00  4.47135e+00  9.80096e-02  5.78875e+01  2.07100e+02  3.74791e+05 -6.00670e+05  1.14288e+03  0.00000e+00 -2.24736e+05  6.24667e+04 -1.62269e+05  9.80110e-02  1.00000e+00 -5.79160e+01  0.00000e+00  8.63002e-01 
 5.88069e-03  3.71014e-03 -5.35987e-21  3.47944e+00  1.69264e-04  3.59752e+02  3.60050e+02  4.42892e+00  4.45875e+00  1.09608e-01  5.96301e+01  2.05899e+02  4.76679e+05 -6.90501e+05  1.13357e+03  0.00000e+00 -2.12688e+05  5.72059e+04 -1.55482e+05  1.09610e-01  1.00000e+00 -5.96618e+01  0.00000e+00  9.75482e-01 
 6.03395e-03  3.94857e-03  5.10973e-21  3.47944e+00  1.69854e-04  3.59780e+02  3.60050e+02  4.41481e+00  4.44431e+00  1.22269e-01  6.09609e+01  2.05184e+02  5.93745e+05 -7.96072e+05  1.12652e+03  0.00000e+00 -2.01201e+05  5.22469e+04 -1.48954e+05  1.22272e-01  1.00000e+00 -6.09963e+01  0.00000e+00  1.10799e+00 
 6.19261e-03  4.18701e-03  0.00000e+00  3.47944e+00  1.70212e-04  3.59807e+02  3.60050e+02  4.39876e+00  4.42785e+00  1.35938e-01  6.17010e+01  2.04753e+02  7.26780e+05 -9.17988e+05  1.12054e+03  0.00000e+00 -1.90088e+05  4.74661e+04 -1.42621e+05  1.35942e-01  1.00000e+00 -6.17404e+01  0.00000e+00  1.26375e+00 
 6.35626e-03  4.42546e-03  0.00000e+00  3.47944e+00  1.70467e-04  3.59834e+02  3.60050e+02  4.38048e+00  4.40911e+00  1.50527e-01  6.16994e+01  2.04446e+02  8.76006e+05 -1.05638e+06  1.11468e+03  0.00000e+00 -1.79255e+05  4.28031e+04 -1.36452e+05  1.50532e-01  1.00000e+00 -6.17431e+01  0.00000e+00  1.44640e+00 
 6.52453e-03  4.66392e-03 -8.96437e-21  3.47944e+00  1.70728e-04  3.59860e+02  3.60050e+02  4.35969e+00  4.38781e+00  1.65909e-01  6.08454e+01  2.04134e+02  1.04089e+06 -1.21072e+06  1.10815e+03  0.00000e+00 -1.68721e+05  3.82421e+04 -1.30479e+05  1.65913e-01  1.00000e+00 -6.08937e+01  0.00000e+00  1.65990e+00 
 6.69707e-03  4.90238e-03  1.72236e-20  3.47944e+00  1.71076e-04  3.59885e+02  3.60050e+02  4.33608e+00  4.36367e+00  1.81919e-01  5.90819e+01  2.03719e+02  1.22008e+06 -1.37976e+06  1.10036e+03  0.00000e+00 -1.58576e+05  3.38003e+04 -1.24775e+05  1.81923e-01  1.00000e+00 -5.91348e+01  0.00000e+00  1.90858e+00 
 6.87356e-03  5.14086e-03  8.28595e-21  3.47944e+00  1.71569e-04  3.59908e+02  3.60050e+02  4.30932e+00  4.33637e+00  1.98365e-01  5.64123e+01  2.03134e+02  1.41153e+06 -1.56153e+06  1.09087e+03  0.00000e+00 -1.48916e+05  2.95161e+04 -1.19400e+05  1.98368e-01  1.00000e+00 -5.64698e+01  0.00000e+00  2.19708e+00 
 7.05370e-03  5.37934e-03 -1.59677e-20  3.47944e+00  1.72240e-04  3.59929e+02  3.60050e+02  4.27910e+00  4.30561e+00  2.15059e-01  5.29067e+01  2.02343e+02  1.61249e+06 -1.75369e+06  1.07945e+03  0.00000e+00 -1.40120e+05  2.54375e+04 -1.14683e+05  2.15063e-01  1.00000e+00 -5.29687e+01  0.00000e+00  2.53025e+00 
 7.23722e-03  5.61783e-03  0.00000e+00  3.47944e+00  1.73091e-04  3.59949e+02  3.60050e+02  4.24512e+00  4.27109e+00  2.31753e-01  4.86799e+01  2.01349e+02  1.82027e+06 -1.95333e+06  1.06605e+03  0.00000e+00 -1.31991e+05  2.16167e+04 -1.10375e+05  2.31757e-01  1.00000e+00 -4.87463e+01  0.00000e+00  2.91351e+00 
 7.42387e-03  5.85632e-03  0.00000e+00  3.47944e+00  1.74103e-04  3.59967e+02  3.60050e+02  4.20718e+00  4.23260e+00  2.48319e-01  4.39017e+01  2.00180e+02  2.03202e+06 -2.15849e+06  1.05082e+03  0.00000e+00 -1.25424e+05  1.80930e+04 -1.07331e+05  2.48323e-01  1.00000e+00 -4.39722e+01  0.00000e+00  3.35247e+00 
 7.61342e-03  6.09482e-03  0.00000e+00  3.47944e+00  1.75209e-04  3.59983e+02  3.60050e+02  4.16507e+00  4.18994e+00  2.64484e-01  3.87404e+01  1.98916e+02  2.24660e+06 -2.36716e+06  1.03412e+03  0.00000e+00 -1.19522e+05  1.49002e+04 -1.04622e+05  2.64487e-01  1.00000e+00 -3.88147e+01  0.00000e+00  3.85463e+00 
 7.80566e-03  6.33332e-03  0.00000e+00  3.47944e+00  1.76343e-04  3.59998e+02  3.60051e+02  4.11859e+00  4.14290e+00  2.80222e-01  3.33816e+01  1.97638e+02  2.46295e+06 -2.57968e+06  1.01639e+03  0.00000e+00 -1.15716e+05  1.20452e+04 -1.03670e+05  2.80225e-01  1.00000e+00 -3.34594e+01  0.00000e+00  4.42820e+00 
 8.00039e-03  6.57182e-03  0.00000e+00  3.47944e+00  1.77374e-04  3.60011e+02  3.60051e+02  4.06755e+00  4.09129e+00  2.95325e-01  2.79706e+01  1.96489e+02  2.68350e+06 -2.79750e+06  9.98260e+02  0.00000e+00 -1.13006e+05  9.52633e+03 -1.03480e+05  2.95327e-01  1.00000e+00 -2.80518e+01  0.00000e+00  5.08620e+00 
 8.19744e-03  6.81033e-03  1.31016e-20  3.47944e+00  1.78199e-04  3.60023e+02  3.60051e+02  4.01165e+00  4.03479e+00  3.09859e-01  2.26224e+01  1.95581e+02  2.91065e+06 -3.02478e+06  9.80274e+02  0.00000e+00 -1.13145e+05  7.31560e+03 -1.05829e+05  3.09859e-01  1.00000e+00 -2.27068e+01  0.00000e+00  5.84394e+00 
 8.39664e-03  7.04884e-03  0.00000e+00  3.47944e+00  1.78627e-04  3.60033e+02  3.60051e+02  3.95058e+00  3.97306e+00  3.23670e-01  1.73990e+01  1.95112e+02  3.15261e+06 -3.26845e+06  9.63158e+02  0.00000e+00 -1.14875e+05  5.38048e+03 -1.09495e+05  3.23670e-01  1.00000e+00 -1.74866e+01  0.00000e+00  6.72838e+00 
 8.59784e-03  7.28736e-03  0.00000e+00  3.47944e+00  1.78538e-04  3.60042e+02  3.60051e+02  3.88345e+00  3.90522e+00  3.36934e-01  1.23029e+01  1.95211e+02  3.41612e+06 -3.53816e+06  9.47406e+02  0.00000e+00 -1.21084e+05  3.66521e+03 -1.17418e+05  3.36933e-01  1.00000e+00 -1.23937e+01  0.00000e+00  7.77060e+00 
 8.80092e-03  7.52587e-03  0.00000e+00  3.47944e+00  1.77676e-04  3.60051e+02  3.60052e+02  3.81005e+00  3.83100e+00  3.49550e-01  7.27680e+00  1.96160e+02  3.71942e+06 -3.85074e+06  9.33745e+02  0.00000e+00 -1.30387e+05  2.11142e+03 -1.28276e+05  3.49549e-01  1.00000e+00 -7.37117e+00  0.00000e+00  9.03267e+00 
 9.00573e-03  7.76439e-03 -1.17014e-20  3.47944e+00  1.75904e-04  3.60059e+02  3.60052e+02  3.72735e+00  3.74738e+00  3.61758e-01  2.16102e+00  1.98136e+02  4.07711e+06 -4.22569e+06  9.22605e+02  0.00000e+00 -1.47655e+05  6.31659e+02 -1.47023e+05  3.61755e-01  1.00000e+00 -2.25940e+00  0.00000e+00  1.05834e+01 
 9.21216e-03  8.00291e-03  0.00000e+00  3.47944e+00  1.72867e-04  3.60066e+02  3.60052e+02  3.63703e+00  3.65598e+00  3.73515e-01 -7.20589e+00  2.01619e+02  4.53094e+06 -4.70349e+06  9.15000e+02  0.00000e+00 -1.71641e+05 -1.93609e+03 -1.73577e+05  3.73512e-01  1.00000e+00  7.02678e+00  0.00000e+00  1.25850e+01 
 9.42012e-03  8.24144e-03  0.00000e+00  3.47944e+00  1.68362e-04  3.60074e+02  3.60053e+02  3.52899e+00  3.54674e+00  3.85117e-01 -2.16663e+01  2.07015e+02  5.12076e+06 -5.33451e+06  9.11289e+02  0.00000e+00 -2.12836e+05 -5.89375e+03 -2.18730e+05  3.85109e-01  1.00000e+00  2.14799e+01  0.00000e+00  1.52272e+01 
 9.62949e-03  8.47996e-03  0.00000e+00  3.47944e+00  1.61723e-04  3.60084e+02  3.60053e+02  3.41142e+00  3.42778e+00  3.96538e-01 -4.31373e+01  2.15515e+02  5.97281e+06 -6.24574e+06  9.14414e+02  0.00000e+00 -2.72013e+05 -1.19130e+04 -2.83926e+05  3.96531e-01  1.00000e+00  4.29415e+01  0.00000e+00  1.90461e+01 
 9.84019e-03  8.71849e-03  0.00000e+00  3.47944e+00  1.52551e-04  3.60099e+02  3.60053e+02  3.25393e+00  3.26882e+00  4.07959e-01 -8.30647e+01  2.28475e+02  7.25815e+06 -7.63067e+06  9.23830e+02  0.00000e+00 -3.71595e+05 -2.36865e+04 -3.95281e+05  4.07947e-01  1.00000e+00  8.28569e+01  0.00000e+00  2.48385e+01 
 1.00521e-02  8.95702e-03  0.00000e+00  3.47944e+00  1.39696e-04  3.60131e+02  3.60054e+02  3.07559e+00  3.08893e+00  4.19423e-01 -1.78829e+02  2.49501e+02  9.55403e+06 -1.00512e+07  9.46429e+02  0.00000e+00 -4.96214e+05 -5.42334e+04 -5.50448e+05  4.19412e-01  1.00000e+00  1.78605e+02  0.00000e+00  3.54032e+01 
 1.02653e-02  9.19555e-03  0.00000e+00  3.47944e+00  1.23138e-04  3.60214e+02  3.60055e+02  2.78591e+00  2.79716e+00  4.31777e-01 -4.93554e+02  2.83056e+02  1.41718e+07 -1.47035e+07  9.65715e+02  0.00000e+00 -5.30788e+05 -1.65076e+05 -6.95864e+05  4.31763e-01  1.00000e+00  4.93307e+02  0.00000e+00  5.85660e+01 
 1.04795e-02  9.43408e-03  0.00000e+00  3.47944e+00  1.05206e-04  3.60574e+02  3.60056e+02  2.33993e+00  2.34677e+00  4.46606e-01 -5.45452e+03  3.31306e+02  2.65882e+07 -2.44115e+07  9.84657e+02  1.40022e+06  3.57787e+06 -3.68012e+06 -1.02249e+05  4.46594e-01  1.00000e+00  5.45425e+03  3.26505e+03  1.46905e+02 
