# Code_Saturne plot output (1D profile)
#
# Iteration output: 3398
# Time output:      2.30007e+01
#
#COLUMN_TITLES: Distance | X | Y | Z | diameter_Field2 | temp_Field1 | temp_Field2 | Velocity_Field1[Z] | Velocity_Field2[Z] | vol_f_Field2 | mass_trans_Field1 | Xd_Field2 | BK | COAL | COMP | NUCL | W1 | MT | SMBR | ALPBB | CONDNUM | GAMA | GAMANUC | epsilon_Field1
 4.56474e-03  1.39645e-04  0.00000e+00  3.47944e+00  3.24434e-04  3.60125e+02  3.60064e+02  5.80040e+00  5.87503e+00  3.42761e-01 -2.10620e+01  1.07344e+02  6.53255e+05 -8.65692e+05  1.00398e+03  0.00000e+00 -2.11433e+05 -2.73896e+03 -2.14172e+05  3.42692e-01  1.00000e+00  2.10519e+01  0.00000e+00  1.70843e+00 
 4.57812e-03  3.76525e-04  4.25872e-21  3.47944e+00  3.29723e-04  3.60125e+02  3.60064e+02  5.79841e+00  5.87462e+00  3.43457e-01 -2.06761e+01  1.05622e+02  6.48672e+05 -8.44223e+05  9.87785e+02  0.00000e+00 -1.94563e+05 -2.64028e+03 -1.97203e+05  3.43386e-01  1.00000e+00  2.06661e+01  0.00000e+00  1.72628e+00 
 4.60371e-03  6.13858e-04  0.00000e+00  3.47944e+00  3.32434e-04  3.60125e+02  3.60064e+02  5.79482e+00  5.87157e+00  3.44619e-01 -2.05339e+01  1.04761e+02  6.51756e+05 -8.38633e+05  9.79358e+02  0.00000e+00 -1.85897e+05 -2.59197e+03 -1.88489e+05  3.44546e-01  1.00000e+00  2.05239e+01  0.00000e+00  1.76085e+00 
 4.64138e-03  8.51483e-04  0.00000e+00  3.47944e+00  3.33880e-04  3.60125e+02  3.60064e+02  5.78952e+00  5.86627e+00  3.46286e-01 -2.05220e+01  1.04307e+02  6.60313e+05 -8.42204e+05  9.74436e+02  0.00000e+00 -1.80917e+05 -2.56685e+03 -1.83484e+05  3.46211e-01  1.00000e+00  2.05120e+01  0.00000e+00  1.81279e+00 
 4.69084e-03  1.08931e-03  0.00000e+00  3.47944e+00  3.34894e-04  3.60125e+02  3.60064e+02  5.78240e+00  5.85887e+00  3.48476e-01 -2.05714e+01  1.03991e+02  6.72811e+05 -8.50919e+05  9.70508e+02  0.00000e+00 -1.77137e+05 -2.54910e+03 -1.79687e+05  3.48401e-01  1.00000e+00  2.05614e+01  0.00000e+00  1.88254e+00 
 4.75174e-03  1.32727e-03  1.05001e-20  3.47944e+00  3.35812e-04  3.60125e+02  3.60064e+02  5.77341e+00  5.84944e+00  3.51142e-01 -2.06517e+01  1.03707e+02  6.88574e+05 -8.63009e+05  9.66593e+02  0.00000e+00 -1.73469e+05 -2.53268e+03 -1.76002e+05  3.51068e-01  1.00000e+00  2.06417e+01  0.00000e+00  1.97097e+00 
 4.82366e-03  1.56534e-03  0.00000e+00  3.47944e+00  3.36820e-04  3.60124e+02  3.60064e+02  5.76251e+00  5.83800e+00  3.54281e-01 -2.07459e+01  1.03397e+02  7.06993e+05 -8.77434e+05  9.62148e+02  0.00000e+00 -1.69479e+05 -2.51412e+03 -1.71993e+05  3.54208e-01  1.00000e+00  2.07358e+01  0.00000e+00  2.07891e+00 
 4.90611e-03  1.80349e-03  8.81027e-21  3.47944e+00  3.37982e-04  3.60124e+02  3.60064e+02  5.74965e+00  5.82454e+00  3.57840e-01 -2.08442e+01  1.03041e+02  7.27683e+05 -8.93580e+05  9.56995e+02  0.00000e+00 -1.64940e+05 -2.49228e+03 -1.67432e+05  3.57770e-01  1.00000e+00  2.08340e+01  0.00000e+00  2.20741e+00 
 4.99859e-03  2.04170e-03  0.00000e+00  3.47944e+00  3.39328e-04  3.60124e+02  3.60064e+02  5.73479e+00  5.80903e+00  3.61789e-01 -2.09402e+01  1.02633e+02  7.50228e+05 -9.11000e+05  9.51055e+02  0.00000e+00 -1.59822e+05 -2.46657e+03 -1.62288e+05  3.61723e-01  1.00000e+00  2.09300e+01  0.00000e+00  2.35754e+00 
 5.10055e-03  2.27996e-03  7.58893e-21  3.47944e+00  3.40839e-04  3.60124e+02  3.60064e+02  5.71788e+00  5.79145e+00  3.66076e-01 -2.10302e+01  1.02178e+02  7.74313e+05 -9.29401e+05  9.44387e+02  0.00000e+00 -1.54144e+05 -2.43729e+03 -1.56581e+05  3.66014e-01  1.00000e+00  2.10199e+01  0.00000e+00  2.53043e+00 
 5.21143e-03  2.51826e-03  7.09702e-21  3.47944e+00  3.42475e-04  3.60123e+02  3.60064e+02  5.69891e+00  5.77177e+00  3.70658e-01 -2.11123e+01  1.01690e+02  7.99652e+05 -9.48600e+05  9.37106e+02  0.00000e+00 -1.48010e+05 -2.40498e+03 -1.50415e+05  3.70598e-01  1.00000e+00  2.11019e+01  0.00000e+00  2.72727e+00 
 5.33068e-03  2.75659e-03  1.33300e-20  3.47944e+00  3.44166e-04  3.60123e+02  3.60064e+02  5.67783e+00  5.74997e+00  3.75395e-01 -2.11842e+01  1.01190e+02  8.26190e+05 -9.68373e+05  9.29481e+02  0.00000e+00 -1.41254e+05 -2.37094e+03 -1.43625e+05  3.75344e-01  1.00000e+00  2.11737e+01  0.00000e+00  2.94932e+00 
 5.45775e-03  2.99495e-03  1.25651e-20  3.47944e+00  3.45847e-04  3.60123e+02  3.60064e+02  5.65464e+00  5.72602e+00  3.80352e-01 -2.12503e+01  1.00699e+02  8.53667e+05 -9.88981e+05  9.21602e+02  0.00000e+00 -1.34392e+05 -2.33588e+03 -1.36728e+05  3.80310e-01  1.00000e+00  2.12397e+01  0.00000e+00  3.19789e+00 
 5.59212e-03  3.23333e-03  0.00000e+00  3.47944e+00  3.47426e-04  3.60122e+02  3.60064e+02  5.62932e+00  5.69990e+00  3.85487e-01 -2.13132e+01  1.00241e+02  8.82117e+05 -1.01061e+06  9.13693e+02  0.00000e+00 -1.27577e+05 -2.30107e+03 -1.29878e+05  3.85445e-01  1.00000e+00  2.13025e+01  0.00000e+00  3.47450e+00 
 5.73326e-03  3.47172e-03  0.00000e+00  3.47944e+00  3.48807e-04  3.60122e+02  3.60064e+02  5.60186e+00  5.67160e+00  3.90708e-01 -2.13752e+01  9.98446e+01  9.11735e+05 -1.03345e+06  9.06038e+02  0.00000e+00 -1.20807e+05 -2.26792e+03 -1.23075e+05  3.90665e-01  1.00000e+00  2.13644e+01  0.00000e+00  3.78082e+00 
 5.88069e-03  3.71014e-03 -5.35987e-21  3.47944e+00  3.49891e-04  3.60121e+02  3.60064e+02  5.57226e+00  5.64108e+00  3.95973e-01 -2.14411e+01  9.95356e+01  9.42795e+05 -1.05790e+06  8.98866e+02  0.00000e+00 -1.14207e+05 -2.23771e+03 -1.16445e+05  3.95930e-01  1.00000e+00  2.14303e+01  0.00000e+00  4.11890e+00 
 6.03395e-03  3.94857e-03  5.10973e-21  3.47944e+00  3.50591e-04  3.60121e+02  3.60064e+02  5.54048e+00  5.60832e+00  4.01256e-01 -2.15160e+01  9.93371e+01  9.75623e+05 -1.08444e+06  8.92377e+02  0.00000e+00 -1.07926e+05 -2.21153e+03 -1.10137e+05  4.01213e-01  1.00000e+00  2.15050e+01  0.00000e+00  4.49111e+00 
 6.19261e-03  4.18701e-03  0.00000e+00  3.47944e+00  3.50822e-04  3.60120e+02  3.60064e+02  5.50649e+00  5.57325e+00  4.06517e-01 -2.16052e+01  9.92718e+01  1.01071e+06 -1.11361e+06  8.86745e+02  0.00000e+00 -1.02014e+05 -2.19050e+03 -1.04205e+05  4.06474e-01  1.00000e+00  2.15940e+01  0.00000e+00  4.90054e+00 
 6.35626e-03  4.42546e-03  0.00000e+00  3.47944e+00  3.50524e-04  3.60120e+02  3.60064e+02  5.47020e+00  5.53578e+00  4.11749e-01 -2.17144e+01  9.93567e+01  1.04851e+06 -1.14602e+06  8.82099e+02  0.00000e+00 -9.66282e+04 -2.17544e+03 -9.88037e+04  4.11708e-01  1.00000e+00  2.17031e+01  0.00000e+00  5.35063e+00 
 6.52453e-03  4.66392e-03 -8.96437e-21  3.47944e+00  3.49632e-04  3.60119e+02  3.60064e+02  5.43159e+00  5.49589e+00  4.16938e-01 -2.18498e+01  9.96104e+01  1.08967e+06 -1.18239e+06  8.78552e+02  0.00000e+00 -9.18479e+04 -2.16726e+03 -9.40152e+04  4.16900e-01  1.00000e+00  2.18384e+01  0.00000e+00  5.84619e+00 
 6.69707e-03  4.90238e-03  1.72236e-20  3.47944e+00  3.48088e-04  3.60118e+02  3.60065e+02  5.39050e+00  5.45338e+00  4.21986e-01 -2.20196e+01  1.00053e+02  1.13507e+06 -1.22336e+06  8.76142e+02  0.00000e+00 -8.74108e+04 -2.16753e+03 -8.95783e+04  4.21952e-01  1.00000e+00  2.20080e+01  0.00000e+00  6.39243e+00 
 6.87356e-03  5.14086e-03  8.28595e-21  3.47944e+00  3.45913e-04  3.60118e+02  3.60065e+02  5.34676e+00  5.40810e+00  4.27035e-01 -2.22320e+01  1.00682e+02  1.18505e+06 -1.26979e+06  8.74939e+02  0.00000e+00 -8.38651e+04 -2.17613e+03 -8.60412e+04  4.27006e-01  1.00000e+00  2.22202e+01  0.00000e+00  6.99687e+00 
 7.05370e-03  5.37934e-03 -1.59677e-20  3.47944e+00  3.43069e-04  3.60117e+02  3.60065e+02  5.30023e+00  5.35992e+00  4.32011e-01 -2.24960e+01  1.01517e+02  1.24058e+06 -1.32251e+06  8.74957e+02  0.00000e+00 -8.10537e+04 -2.19462e+03 -8.32483e+04  4.31989e-01  1.00000e+00  2.24839e+01  0.00000e+00  7.66698e+00 
 7.23722e-03  5.61783e-03  0.00000e+00  3.47944e+00  3.39525e-04  3.60117e+02  3.60065e+02  5.25073e+00  5.30864e+00  4.36898e-01 -2.28287e+01  1.02578e+02  1.30298e+06 -1.38276e+06  8.76246e+02  0.00000e+00 -7.89034e+04 -2.22512e+03 -8.11285e+04  4.36881e-01  1.00000e+00  2.28163e+01  0.00000e+00  8.41521e+00 
 7.42387e-03  5.85632e-03  0.00000e+00  3.47944e+00  3.35301e-04  3.60116e+02  3.60065e+02  5.19790e+00  5.25389e+00  4.41745e-01 -2.32484e+01  1.03870e+02  1.37306e+06 -1.45168e+06  8.78773e+02  0.00000e+00 -7.77472e+04 -2.26938e+03 -8.00166e+04  4.41733e-01  1.00000e+00  2.32358e+01  0.00000e+00  9.25257e+00 
 7.61342e-03  6.09482e-03  0.00000e+00  3.47944e+00  3.30342e-04  3.60116e+02  3.60066e+02  5.14163e+00  5.19559e+00  4.46489e-01 -2.37862e+01  1.05430e+02  1.45305e+06 -1.53118e+06  8.82671e+02  0.00000e+00 -7.72508e+04 -2.33169e+03 -7.95825e+04  4.46480e-01  1.00000e+00  2.37733e+01  0.00000e+00  1.02004e+01 
 7.80566e-03  6.33332e-03  0.00000e+00  3.47944e+00  3.24687e-04  3.60115e+02  3.60066e+02  5.08112e+00  5.13292e+00  4.51212e-01 -2.44807e+01  1.07267e+02  1.54406e+06 -1.62299e+06  8.87862e+02  0.00000e+00 -7.80469e+04 -2.41601e+03 -8.04630e+04  4.51205e-01  1.00000e+00  2.44674e+01  0.00000e+00  1.12752e+01 
 8.00039e-03  6.57182e-03  0.00000e+00  3.47944e+00  3.18240e-04  3.60115e+02  3.60066e+02  5.01667e+00  5.06622e+00  4.55833e-01 -2.53969e+01  1.09441e+02  1.65002e+06 -1.73051e+06  8.94619e+02  0.00000e+00 -7.96013e+04 -2.53131e+03 -8.21326e+04  4.55826e-01  1.00000e+00  2.53833e+01  0.00000e+00  1.25163e+01 
 8.19744e-03  6.81033e-03  1.31016e-20  3.47944e+00  3.11052e-04  3.60115e+02  3.60067e+02  4.94621e+00  4.99335e+00  4.60463e-01 -2.66227e+01  1.11971e+02  1.77266e+06 -1.85664e+06  9.02791e+02  0.00000e+00 -8.30757e+04 -2.68754e+03 -8.57632e+04  4.60457e-01  1.00000e+00  2.66086e+01  0.00000e+00  1.39491e+01 
 8.39664e-03  7.04884e-03  0.00000e+00  3.47944e+00  3.02953e-04  3.60115e+02  3.60067e+02  4.87169e+00  4.91633e+00  4.65008e-01 -2.83050e+01  1.14965e+02  1.91942e+06 -2.00796e+06  9.13008e+02  0.00000e+00 -8.76255e+04 -2.90515e+03 -9.05307e+04  4.65002e-01  1.00000e+00  2.82905e+01  0.00000e+00  1.56520e+01 
 8.59784e-03  7.28736e-03  0.00000e+00  3.47944e+00  2.94007e-04  3.60116e+02  3.60067e+02  4.78720e+00  4.82917e+00  4.69600e-01 -3.06684e+01  1.18464e+02  2.09362e+06 -2.18997e+06  9.24837e+02  0.00000e+00 -9.54195e+04 -3.21190e+03 -9.86314e+04  4.69592e-01  1.00000e+00  3.06534e+01  0.00000e+00  1.76683e+01 
 8.80092e-03  7.52587e-03  0.00000e+00  3.47944e+00  2.83912e-04  3.60117e+02  3.60068e+02  4.70002e+00  4.73922e+00  4.74149e-01 -3.40918e+01  1.22677e+02  2.31068e+06 -2.41682e+06  9.39833e+02  0.00000e+00 -1.05193e+05 -3.66202e+03 -1.08855e+05  4.74145e-01  1.00000e+00  3.40761e+01  0.00000e+00  2.01707e+01 
 9.00573e-03  7.76439e-03 -1.17014e-20  3.47944e+00  2.72748e-04  3.60119e+02  3.60068e+02  4.59365e+00  4.62987e+00  4.78800e-01 -3.92416e+01  1.27700e+02  2.57860e+06 -2.70096e+06  9.56572e+02  0.00000e+00 -1.21407e+05 -4.34533e+03 -1.25752e+05  4.78796e-01  1.00000e+00  3.92252e+01  0.00000e+00  2.32482e+01 
 9.21216e-03  8.00291e-03  0.00000e+00  3.47944e+00  2.59971e-04  3.60123e+02  3.60069e+02  4.48962e+00  4.52281e+00  4.83509e-01 -4.73374e+01  1.33977e+02  2.93427e+06 -3.07750e+06  9.79391e+02  0.00000e+00 -1.42250e+05 -5.44618e+03 -1.47696e+05  4.83507e-01  1.00000e+00  4.73202e+01  0.00000e+00  2.73368e+01 
 9.42012e-03  8.24144e-03  0.00000e+00  3.47944e+00  2.45657e-04  3.60129e+02  3.60070e+02  4.34574e+00  4.37556e+00  4.88391e-01 -6.08683e+01  1.41786e+02  3.40367e+06 -3.58285e+06  1.00378e+03  0.00000e+00 -1.78178e+05 -7.33746e+03 -1.85515e+05  4.88389e-01  1.00000e+00  6.08502e+01  0.00000e+00  3.27012e+01 
 9.62949e-03  8.47996e-03  0.00000e+00  3.47944e+00  2.28777e-04  3.60140e+02  3.60070e+02  4.21433e+00  4.24084e+00  4.93498e-01 -8.53964e+01  1.52249e+02  4.09749e+06 -4.32608e+06  1.04170e+03  0.00000e+00 -2.27545e+05 -1.09403e+04 -2.38486e+05  4.93497e-01  1.00000e+00  8.53772e+01  0.00000e+00  4.06971e+01 
 9.84019e-03  8.71849e-03  0.00000e+00  3.47944e+00  2.09275e-04  3.60161e+02  3.60071e+02  3.99895e+00  4.02169e+00  4.98828e-01 -1.35100e+02  1.66439e+02  5.14348e+06 -5.46311e+06  1.08091e+03  0.00000e+00 -3.18545e+05 -1.87203e+04 -3.37266e+05  4.98825e-01  1.00000e+00  1.35080e+02  0.00000e+00  5.26848e+01 
 1.00521e-02  8.95702e-03  0.00000e+00  3.47944e+00  1.85070e-04  3.60204e+02  3.60072e+02  3.79952e+00  3.81884e+00  5.04508e-01 -2.56400e+02  1.88210e+02  7.05810e+06 -7.50895e+06  1.15185e+03  0.00000e+00 -4.49704e+05 -3.97255e+04 -4.89430e+05  5.04506e-01  1.00000e+00  2.56377e+02  0.00000e+00  7.51784e+01 
 1.02653e-02  9.19555e-03  0.00000e+00  3.47944e+00  1.56221e-04  3.60315e+02  3.60073e+02  3.40578e+00  3.42062e+00  5.10767e-01 -6.45584e+02  2.22971e+02  1.09917e+07 -1.15934e+07  1.21623e+03  0.00000e+00 -6.00518e+05 -1.17049e+05 -7.17567e+05  5.10771e-01  1.00000e+00  6.45559e+02  0.00000e+00  1.23892e+02 
 1.04795e-02  9.43408e-03  0.00000e+00  3.47944e+00  1.24044e-04  3.60756e+02  3.60074e+02  2.87344e+00  2.88080e+00  5.19363e-01 -6.33558e+03  2.80818e+02  2.21481e+07 -2.04814e+07  1.33272e+03  1.01729e+06  2.68531e+06 -2.72752e+06 -4.22081e+04  5.19367e-01  1.00000e+00  6.33555e+03  3.61952e+03  3.11046e+02 
