# Code_Saturne plot output (1D profile)
#
# Iteration output: 4637
# Time output:      2.30005e+01
#
#COLUMN_TITLES: Distance | X | Y | Z | diameter_Field2 | temp_Field1 | temp_Field2 | Velocity_Field1[Z] | Velocity_Field2[Z] | vol_f_Field2 | mass_trans_Field1 | Xd_Field2 | BK | COAL | COMP | NUCL | W1 | MT | SMBR | ALPBB | CONDNUM | GAMA | GAMANUC | epsilon_Field1
 4.56474e-03  1.39645e-04  0.00000e+00  3.47944e+00  6.22252e-05  3.59526e+02  3.60050e+02  4.70181e+00  4.71170e+00  3.44128e-02  1.02967e+02  5.60064e+02  1.22846e-10 -3.96686e+05  3.20485e+03  0.00000e+00 -3.93482e+05  3.71712e+05 -2.17701e+04  3.44097e-02  1.00000e+00 -1.03249e+02  0.00000e+00  2.53329e-01 
 4.57812e-03  3.76525e-04  4.25872e-21  3.47944e+00  7.72399e-05  3.59528e+02  3.60050e+02  4.70151e+00  4.71490e+00  3.52444e-02  7.80657e+01  4.51193e+02  4.26499e-05 -2.82307e+05  2.58000e+03  0.00000e+00 -2.79727e+05  2.21677e+05 -5.80509e+04  3.52421e-02  1.00000e+00 -7.82808e+01  0.00000e+00  2.56760e-01 
 4.60371e-03  6.13858e-04  0.00000e+00  3.47944e+00  9.00769e-05  3.59533e+02  3.60050e+02  4.70054e+00  4.71688e+00  3.67720e-02  6.58263e+01  3.86892e+02  3.32644e-02 -2.28402e+05  2.21247e+03  0.00000e+00 -2.26189e+05  1.53628e+05 -7.25615e+04  3.67699e-02  1.00000e+00 -6.60097e+01  0.00000e+00  2.63527e-01 
 4.64138e-03  8.51483e-04  0.00000e+00  3.47944e+00  1.00999e-04  3.59541e+02  3.60050e+02  4.69906e+00  4.71787e+00  3.89857e-02  5.93736e+01  3.45054e+02  1.84244e+00 -2.01510e+05  1.97323e+03  0.00000e+00 -1.99535e+05  1.16571e+05 -8.29633e+04  3.89836e-02  1.00000e+00 -5.95417e+01  0.00000e+00  2.73776e-01 
 4.69084e-03  1.08931e-03  0.00000e+00  3.47944e+00  1.10756e-04  3.59553e+02  3.60050e+02  4.69704e+00  4.71798e+00  4.19164e-02  5.57428e+01  3.14655e+02  2.94348e+01 -1.87920e+05  1.79921e+03  0.00000e+00 -1.86092e+05  9.28286e+04 -9.32630e+04  4.19144e-02  1.00000e+00 -5.59043e+01  0.00000e+00  2.87753e-01 
 4.75174e-03  1.32727e-03  1.05001e-20  3.47944e+00  1.19695e-04  3.59568e+02  3.60050e+02  4.69447e+00  4.71731e+00  4.56100e-02  5.37463e+01  2.91158e+02  2.30834e+02 -1.82450e+05  1.66457e+03  0.00000e+00 -1.80554e+05  7.61183e+04 -1.04436e+05  4.56084e-02  1.00000e+00 -5.39066e+01  0.00000e+00  3.05804e-01 
 4.82366e-03  1.56534e-03  0.00000e+00  3.47944e+00  1.27929e-04  3.59586e+02  3.60050e+02  4.69132e+00  4.71585e+00  5.01254e-02  5.28261e+01  2.72417e+02  1.13507e+03 -1.82913e+05  1.55694e+03  0.00000e+00 -1.80221e+05  6.37004e+04 -1.16521e+05  5.01241e-02  1.00000e+00 -5.29896e+01  0.00000e+00  3.28425e-01 
 4.90611e-03  1.80349e-03  8.81027e-21  3.47944e+00  1.35422e-04  3.59606e+02  3.60050e+02  4.68756e+00  4.71357e+00  5.55317e-02  5.27043e+01  2.57344e+02  3.98426e+03 -1.88481e+05  1.47016e+03  0.00000e+00 -1.83027e+05  5.42001e+04 -1.28827e+05  5.55298e-02  1.00000e+00 -5.28748e+01  0.00000e+00  3.56219e-01 
 4.99859e-03  2.04170e-03  0.00000e+00  3.47944e+00  1.42034e-04  3.59630e+02  3.60050e+02  4.68314e+00  4.71039e+00  6.18952e-02  5.32270e+01  2.45363e+02  1.08141e+04 -1.99085e+05  1.40094e+03  0.00000e+00 -1.86870e+05  4.68321e+04 -1.40037e+05  6.18929e-02  1.00000e+00 -5.34083e+01  0.00000e+00  3.89973e-01 
 5.10055e-03  2.27996e-03  7.58893e-21  3.47944e+00  1.47581e-04  3.59655e+02  3.60050e+02  4.67800e+00  4.70621e+00  6.92924e-02  5.38625e+01  2.36142e+02  2.40079e+04 -2.15202e+05  1.34735e+03  0.00000e+00 -1.89847e+05  4.07495e+04 -1.49097e+05  6.92905e-02  1.00000e+00 -5.40575e+01  0.00000e+00  4.30636e-01 
 5.21143e-03  2.51826e-03  7.09702e-21  3.47944e+00  1.51899e-04  3.59683e+02  3.60050e+02  4.67206e+00  4.70092e+00  7.77891e-02  5.48494e+01  2.29428e+02  4.55757e+04 -2.37670e+05  1.30788e+03  0.00000e+00 -1.90786e+05  3.59218e+04 -1.54864e+05  7.77874e-02  1.00000e+00 -5.50622e+01  0.00000e+00  4.79372e-01 
 5.33068e-03  2.75659e-03  1.33300e-20  3.47944e+00  1.54916e-04  3.59712e+02  3.60050e+02  4.66521e+00  4.69443e+00  8.74231e-02  5.61023e+01  2.24961e+02  7.67897e+04 -2.67550e+05  1.28099e+03  0.00000e+00 -1.89479e+05  3.20667e+04 -1.57412e+05  8.74216e-02  1.00000e+00 -5.63376e+01  0.00000e+00  5.37585e-01 
 5.45775e-03  2.99495e-03  1.25651e-20  3.47944e+00  1.56671e-04  3.59742e+02  3.60050e+02  4.65735e+00  4.68659e+00  9.82319e-02  5.74765e+01  2.22441e+02  1.18387e+05 -3.06136e+05  1.26485e+03  0.00000e+00 -1.86485e+05  2.89208e+04 -1.57564e+05  9.82308e-02  1.00000e+00 -5.77398e+01  0.00000e+00  6.06927e-01 
 5.59212e-03  3.23333e-03  0.00000e+00  3.47944e+00  1.57300e-04  3.59772e+02  3.60050e+02  4.64832e+00  4.67738e+00  1.10208e-01  5.87814e+01  2.21551e+02  1.71045e+05 -3.54798e+05  1.25762e+03  0.00000e+00 -1.82495e+05  2.62700e+04 -1.56225e+05  1.10208e-01  1.00000e+00 -5.90783e+01  0.00000e+00  6.89358e-01 
 5.73326e-03  3.47172e-03  0.00000e+00  3.47944e+00  1.56990e-04  3.59802e+02  3.60050e+02  4.63795e+00  4.66650e+00  1.23349e-01  5.98159e+01  2.21989e+02  2.35681e+05 -4.15127e+05  1.25752e+03  0.00000e+00 -1.78189e+05  2.39449e+04 -1.54244e+05  1.23351e-01  1.00000e+00 -6.01526e+01  0.00000e+00  7.87135e-01 
 5.88069e-03  3.71014e-03 -5.35987e-21  3.47944e+00  1.55939e-04  3.59832e+02  3.60050e+02  4.62605e+00  4.65389e+00  1.37600e-01  6.03740e+01  2.23486e+02  3.13488e+05 -4.88733e+05  1.26291e+03  0.00000e+00 -1.73983e+05  2.18267e+04 -1.52156e+05  1.37603e-01  1.00000e+00 -6.07569e+01  0.00000e+00  9.02808e-01 
 6.03395e-03  3.94857e-03  5.10973e-21  3.47944e+00  1.54327e-04  3.59861e+02  3.60050e+02  4.61240e+00  4.63940e+00  1.52847e-01  6.02627e+01  2.25820e+02  4.05985e+05 -5.77230e+05  1.27240e+03  0.00000e+00 -1.69973e+05  1.98356e+04 -1.50137e+05  1.52849e-01  1.00000e+00 -6.06984e+01  0.00000e+00  1.03941e+00 
 6.19261e-03  4.18701e-03  0.00000e+00  3.47944e+00  1.52313e-04  3.59888e+02  3.60050e+02  4.59671e+00  4.62296e+00  1.68980e-01  5.93414e+01  2.28805e+02  5.14362e+05 -6.82257e+05  1.28593e+03  0.00000e+00 -1.66609e+05  1.79213e+04 -1.48688e+05  1.68980e-01  1.00000e+00 -5.98365e+01  0.00000e+00  1.19977e+00 
 6.35626e-03  4.42546e-03  0.00000e+00  3.47944e+00  1.50016e-04  3.59914e+02  3.60050e+02  4.58380e+00  4.61051e+00  1.85807e-01  5.75651e+01  2.32310e+02  6.42811e+05 -8.05934e+05  1.29427e+03  0.00000e+00 -1.61829e+05  1.60753e+04 -1.45753e+05  1.85804e-01  1.00000e+00 -5.81263e+01  0.00000e+00  1.39092e+00 
 6.52453e-03  4.66392e-03 -8.96437e-21  3.47944e+00  1.47546e-04  3.59937e+02  3.60050e+02  4.56292e+00  4.58846e+00  2.03203e-01  5.48143e+01  2.36199e+02  7.92632e+05 -9.49891e+05  1.31009e+03  0.00000e+00 -1.55949e+05  1.42567e+04 -1.41692e+05  2.03194e-01  1.00000e+00 -5.54473e+01  0.00000e+00  1.61692e+00 
 6.69707e-03  4.90238e-03  1.72236e-20  3.47944e+00  1.44995e-04  3.59959e+02  3.60050e+02  4.53912e+00  4.56341e+00  2.20973e-01  5.11568e+01  2.40355e+02  9.62521e+05 -1.11476e+06  1.32623e+03  0.00000e+00 -1.50912e+05  1.24795e+04 -1.38433e+05  2.20963e-01  1.00000e+00 -5.18671e+01  0.00000e+00  1.87936e+00 
 6.87356e-03  5.14086e-03  8.28595e-21  3.47944e+00  1.42427e-04  3.59978e+02  3.60050e+02  4.51208e+00  4.53512e+00  2.38897e-01  4.66978e+01  2.44688e+02  1.15349e+06 -1.30127e+06  1.34261e+03  0.00000e+00 -1.46446e+05  1.07595e+04 -1.35686e+05  2.38887e-01  1.00000e+00 -4.74899e+01  0.00000e+00  2.18329e+00 
 7.05370e-03  5.37934e-03 -1.59677e-20  3.47944e+00  1.39886e-04  3.59995e+02  3.60050e+02  4.48157e+00  4.50337e+00  2.56848e-01  4.15993e+01  2.49134e+02  1.36669e+06 -1.51062e+06  1.35842e+03  0.00000e+00 -1.42577e+05  9.11359e+03 -1.33463e+05  2.56843e-01  1.00000e+00 -4.24771e+01  0.00000e+00  2.53499e+00 
 7.23722e-03  5.61783e-03  0.00000e+00  3.47944e+00  1.37403e-04  3.60009e+02  3.60050e+02  4.44730e+00  4.46788e+00  2.74604e-01  3.60500e+01  2.53636e+02  1.60230e+06 -1.74278e+06  1.37337e+03  0.00000e+00 -1.39109e+05  7.56254e+03 -1.31547e+05  2.74605e-01  1.00000e+00 -3.70164e+01  0.00000e+00  2.93995e+00 
 7.42387e-03  5.85632e-03  0.00000e+00  3.47944e+00  1.34992e-04  3.60022e+02  3.60050e+02  4.40909e+00  4.42848e+00  2.92121e-01  3.02656e+01  2.58168e+02  1.86112e+06 -1.99895e+06  1.38673e+03  0.00000e+00 -1.36437e+05  6.12309e+03 -1.30314e+05  2.92121e-01  1.00000e+00 -3.13228e+01  0.00000e+00  3.40599e+00 
 7.61342e-03  6.09482e-03  0.00000e+00  3.47944e+00  1.32654e-04  3.60032e+02  3.60050e+02  4.36666e+00  4.38491e+00  3.09196e-01  2.44493e+01  2.62717e+02  2.14326e+06 -2.27896e+06  1.39855e+03  0.00000e+00 -1.34303e+05  4.81125e+03 -1.29492e+05  3.09185e-01  1.00000e+00 -2.55987e+01  0.00000e+00  3.94013e+00 
 7.80566e-03  6.33332e-03  0.00000e+00  3.47944e+00  1.30377e-04  3.60041e+02  3.60050e+02  4.31986e+00  4.33700e+00  3.25878e-01  1.87976e+01  2.67306e+02  2.45049e+06 -2.58552e+06  1.40852e+03  0.00000e+00 -1.33622e+05  3.63631e+03 -1.29985e+05  3.25857e-01  1.00000e+00 -2.00406e+01  0.00000e+00  4.55416e+00 
 8.00039e-03  6.57182e-03  0.00000e+00  3.47944e+00  1.28136e-04  3.60048e+02  3.60050e+02  4.26828e+00  4.28433e+00  3.41978e-01  1.34645e+01  2.71982e+02  2.78425e+06 -2.91968e+06  1.41705e+03  0.00000e+00 -1.34012e+05  2.60412e+03 -1.31407e+05  3.41950e-01  1.00000e+00 -1.48019e+01  0.00000e+00  5.25977e+00 
 8.19744e-03  6.81033e-03  1.31016e-20  3.47944e+00  1.25893e-04  3.60054e+02  3.60050e+02  4.21178e+00  4.22678e+00  3.57634e-01  8.58236e+00  2.76831e+02  3.14953e+06 -3.28772e+06  1.42396e+03  0.00000e+00 -1.36766e+05  1.71497e+03 -1.35051e+05  3.57611e-01  1.00000e+00 -1.00157e+01  0.00000e+00  6.07793e+00 
 8.39664e-03  7.04884e-03  0.00000e+00  3.47944e+00  1.23595e-04  3.60058e+02  3.60051e+02  4.14956e+00  4.16353e+00  3.72691e-01  4.23405e+00  2.81977e+02  3.55145e+06 -3.69447e+06  1.42992e+03  0.00000e+00 -1.41583e+05  9.64905e+02 -1.40618e+05  3.72671e-01  1.00000e+00 -5.76530e+00  0.00000e+00  7.03026e+00 
 8.59784e-03  7.28736e-03  0.00000e+00  3.47944e+00  1.21179e-04  3.60061e+02  3.60051e+02  4.08142e+00  4.09436e+00  3.87374e-01  4.86281e-01  2.87602e+02  4.00221e+06 -4.15395e+06  1.43503e+03  0.00000e+00 -1.50305e+05  3.48051e+02 -1.49957e+05  3.87359e-01  1.00000e+00 -2.11926e+00  0.00000e+00  8.15996e+00 
 8.80092e-03  7.52587e-03  0.00000e+00  3.47944e+00  1.18560e-04  3.60064e+02  3.60051e+02  4.00587e+00  4.01779e+00  4.01517e-01 -5.11460e+00  2.93955e+02  4.51573e+06 -4.68001e+06  1.44033e+03  0.00000e+00 -1.62841e+05 -3.07871e+02 -1.63148e+05  4.01495e-01  1.00000e+00  1.90102e+00  0.00000e+00  9.51382e+00 
 9.00573e-03  7.76439e-03 -1.17014e-20  3.47944e+00  1.15638e-04  3.60065e+02  3.60051e+02  3.92208e+00  3.93294e+00  4.15504e-01 -1.02687e+01  3.01386e+02  5.11950e+06 -5.30539e+06  1.44633e+03  0.00000e+00 -1.84443e+05 -1.10368e+03 -1.85547e+05  4.15483e-01  1.00000e+00  6.87844e+00  0.00000e+00  1.11879e+01 
 9.21216e-03  8.00291e-03  0.00000e+00  3.47944e+00  1.12250e-04  3.60066e+02  3.60052e+02  3.82822e+00  3.83802e+00  4.29079e-01 -1.48161e+01  3.10485e+02  5.85623e+06 -6.07237e+06  1.45432e+03  0.00000e+00 -2.14679e+05 -1.79808e+03 -2.16477e+05  4.29055e-01  1.00000e+00  1.12330e+01  0.00000e+00  1.33148e+01 
 9.42012e-03  8.24144e-03  0.00000e+00  3.47944e+00  1.08241e-04  3.60068e+02  3.60052e+02  3.71997e+00  3.72866e+00  4.42920e-01 -1.98781e+01  3.21988e+02  6.79255e+06 -7.06473e+06  1.46596e+03  0.00000e+00 -2.70715e+05 -2.58540e+03 -2.73301e+05  4.42893e-01  1.00000e+00  1.60768e+01  0.00000e+00  1.61360e+01 
 9.62949e-03  8.47996e-03  0.00000e+00  3.47944e+00  1.03268e-04  3.60069e+02  3.60052e+02  3.59405e+00  3.60127e+00  4.56577e-01 -2.79227e+01  3.37495e+02  8.06722e+06 -8.42700e+06  1.48634e+03  0.00000e+00 -3.58298e+05 -3.90184e+03 -3.62200e+05  4.56545e-01  1.00000e+00  2.38617e+01  0.00000e+00  2.00847e+01 
 9.84019e-03  8.71849e-03  0.00000e+00  3.47944e+00  9.70099e-05  3.60072e+02  3.60053e+02  3.43739e+00  3.44345e+00  4.70885e-01 -4.62252e+01  3.59270e+02  9.92844e+06 -1.04552e+07  1.51249e+03  0.00000e+00 -5.25291e+05 -7.06171e+03 -5.32353e+05  4.70857e-01  1.00000e+00  4.18415e+01  0.00000e+00  2.60325e+01 
 1.00521e-02  8.95702e-03  0.00000e+00  3.47944e+00  8.86254e-05  3.60082e+02  3.60053e+02  3.25402e+00  3.25877e+00  4.85409e-01 -1.03366e+02  3.93263e+02  1.31373e+07 -1.39281e+07  1.55798e+03  0.00000e+00 -7.89274e+05 -1.76580e+04 -8.06932e+05  4.85380e-01  1.00000e+00  9.85386e+01  0.00000e+00  3.64925e+01 
 1.02653e-02  9.19555e-03  0.00000e+00  3.47944e+00  7.76822e-05  3.60117e+02  3.60054e+02  2.97129e+00  2.97461e+00  5.02236e-01 -3.65176e+02  4.48668e+02  1.97652e+07 -2.09104e+07  1.60976e+03  0.00000e+00 -1.14357e+06 -7.10792e+04 -1.21465e+06  5.02207e-01  1.00000e+00  3.59727e+02  0.00000e+00  5.95561e+01 
 1.04795e-02  9.43408e-03  0.00000e+00  3.47944e+00  6.44644e-05  3.60351e+02  3.60055e+02  2.53126e+00  2.53247e+00  5.25919e-01 -5.98831e+03  5.40673e+02  3.98381e+07 -3.90025e+07  1.70740e+03  2.61387e+06  3.45116e+06 -3.65454e+06 -2.03382e+05  5.25904e-01  1.00000e+00  5.98204e+03  3.34787e+03  1.47158e+02 
