# Code_Saturne plot output (1D profile)
#
# Iteration output: 1549
# Time output:      2.30024e+01
#
#COLUMN_TITLES: Distance | X | Y | Z | diameter_Field2 | temp_Field1 | temp_Field2 | Velocity_Field1[Z] | Velocity_Field2[Z] | vol_f_Field2 | mass_trans_Field1 | Xd_Field2 | BK | COAL | COMP | NUCL | W1 | MT | SMBR | ALPBB | CONDNUM | GAMA | GAMANUC | epsilon_Field1
 4.56474e-03  1.39645e-04  0.00000e+00  3.47944e+00  1.00000e-05  3.56904e+02  3.60048e+02  3.73504e+00  3.73547e+00  9.61236e-17  6.13357e-10  3.48626e+03  0.00000e+00 -3.13608e-06  1.15017e+04  0.00000e+00  1.15017e+04  1.06006e+00  7.75877e+03  7.51316e-15  7.51316e-09 -6.13357e-10  0.00000e+00  3.19950e-01 
 4.57812e-03  3.76525e-04  4.25872e-21  3.47944e+00  1.00000e-05  3.56910e+02  3.60048e+02  3.73444e+00  3.73487e+00  3.20689e-16  4.91719e-10  3.48626e+03  0.00000e+00 -2.54371e-06  9.37286e+03  0.00000e+00  9.37286e+03  8.49831e-01  6.19653e+03  6.07594e-15  6.07594e-09 -4.91719e-10  0.00000e+00  3.22853e-01 
 4.60371e-03  6.13858e-04  0.00000e+00  3.47944e+00  1.00000e-05  3.56923e+02  3.60048e+02  3.73275e+00  3.73318e+00  1.55183e-15  3.47365e-10  3.48626e+03  0.00000e+00 -1.79091e-06  9.69365e+03  0.00000e+00  9.69365e+03  6.00348e-01 -2.34654e+04  4.25311e-15  4.25311e-09 -3.47365e-10  0.00000e+00  3.28574e-01 
 4.64138e-03  8.51483e-04  0.00000e+00  3.47944e+00  1.00000e-05  3.56943e+02  3.60048e+02  3.73028e+00  3.73071e+00  9.31349e-15  1.27934e-09  3.48626e+03  0.00000e+00 -6.72183e-06  9.75062e+03  0.00000e+00  9.75062e+03  2.21107e+00 -6.37098e+03  1.58281e-14  1.58281e-08 -1.27934e-09  0.00000e+00  3.37177e-01 
 4.69084e-03  1.08931e-03  0.00000e+00  3.47944e+00  1.00000e-05  3.56968e+02  3.60048e+02  3.72697e+00  3.72741e+00  5.78415e-14  7.45287e-09  3.48626e+03  0.00000e+00 -3.95927e-05  9.81320e+03  0.00000e+00  9.81320e+03  1.28807e+01 -1.09900e+03  9.21992e-14  9.21992e-08 -7.45287e-09  0.00000e+00  3.48771e-01 
 4.75174e-03  1.32727e-03  1.05001e-20  3.47944e+00  1.00000e-05  3.57000e+02  3.60048e+02  3.72286e+00  3.72318e+00  3.71779e-13  4.60975e-08  3.48626e+03  0.00000e+00 -2.47555e-04  9.68122e+03  0.00000e+00  9.68122e+03  7.96699e+01 -1.77144e+02  5.68702e-13  5.68702e-07 -4.60975e-08  0.00000e+00  3.63478e-01 
 4.82366e-03  1.56534e-03  0.00000e+00  3.47944e+00  1.00000e-05  3.57039e+02  3.60048e+02  3.71792e+00  3.71814e+00  2.54609e-12  2.94653e-07  3.48626e+03  0.00000e+00 -1.61412e-03  9.55873e+03  0.00000e+00  9.55873e+03  5.09247e+02 -2.67111e+01  3.64969e-12  3.64969e-06 -2.94653e-07  0.00000e+00  3.81456e-01 
 4.90611e-03  1.80349e-03  8.81027e-21  3.47944e+00  1.00000e-05  3.57083e+02  3.60048e+02  3.71216e+00  3.71231e+00  1.83415e-11  2.03789e-06  3.48626e+03 5.27337e-281 -1.13431e-02  9.39990e+03  0.00000e+00  9.39989e+03  3.52211e+03 -3.00696e+00  2.51910e-11  2.51910e-05 -2.03791e-06  0.00000e+00  4.02888e-01 
 4.99859e-03  2.04170e-03  0.00000e+00  3.47944e+00  1.00000e-05  3.57134e+02  3.60048e+02  3.70555e+00  3.70570e+00  1.31391e-10  1.40092e-05  3.48627e+03 1.40585e-269 -7.97842e-02  9.60362e+03  0.00000e+00  9.60354e+03  2.42123e+04  3.38159e+04  1.73703e-10  1.73703e-04 -1.40094e-05  0.00000e+00  4.27985e-01 
 5.10055e-03  2.27996e-03  7.58893e-21  3.47944e+00  1.00000e-05  3.57191e+02  3.60048e+02  3.69807e+00  3.69822e+00  9.29587e-10  9.45208e-05  3.48626e+03 1.08077e-257 -5.52022e-01  1.05130e+04  0.00000e+00  1.05124e+04  1.63362e+05  1.73875e+05  1.17623e-09  1.17623e-03 -9.45225e-05  0.00000e+00  4.56982e-01 
 5.21143e-03  2.51826e-03  7.09702e-21  3.47944e+00  1.00000e-05  3.57255e+02  3.60047e+02  3.68972e+00  3.68985e+00  6.48093e-09  6.27478e-04  3.48621e+03 1.49362e-245 -3.76529e+00  1.02643e+04  0.00000e+00  1.02605e+04  1.08447e+06  1.09473e+06  7.84041e-09  7.84041e-03 -6.27489e-04  0.00000e+00  4.90146e-01 
 5.33068e-03  2.75659e-03  1.33300e-20  3.47944e+00  1.00000e-05  3.57324e+02  3.60046e+02  3.68045e+00  3.68058e+00  4.39255e-08  4.23507e-03  3.48614e+03 2.44924e-233 -2.55125e+01  9.41397e+03  0.00000e+00  9.38845e+03  7.31933e+06  7.32872e+06  5.18498e-08  5.18498e-02 -4.23515e-03  0.00000e+00  5.27768e-01 
 5.45775e-03  2.99495e-03  1.25651e-20  3.47944e+00  1.00000e-05  3.57399e+02  3.60045e+02  3.67027e+00  3.67039e+00  2.96557e-07  2.74110e-02  3.48613e+03 3.37443e-221 -1.70323e+02  9.26412e+03  0.00000e+00  9.09379e+03  4.73732e+07  4.73823e+07  3.37479e-07  3.37479e-01 -2.74115e-02  0.00000e+00  5.70179e-01 
 5.59212e-03  3.23333e-03  0.00000e+00  3.47944e+00  1.00000e-05  3.57480e+02  3.60045e+02  3.65914e+00  3.65925e+00  1.96803e-06  1.73682e-01  3.48613e+03 2.95589e-209 -1.11513e+03  9.31364e+03  0.00000e+00  8.19850e+03  1.39471e+08  1.39479e+08  2.15219e-06  1.00000e+00 -1.73686e-01  0.00000e+00  6.17752e-01 
 5.73326e-03  3.47172e-03  0.00000e+00  3.47944e+00  1.00000e-05  3.57567e+02  3.60046e+02  3.64709e+00  3.64719e+00  1.27545e-05  1.07326e+00  3.48613e+03 1.33964e-197 -7.13271e+03  9.37916e+03  0.00000e+00  2.24645e+03  1.38443e+08  1.38445e+08  1.33982e-05  1.00000e+00 -1.07329e+00  0.00000e+00  6.70925e-01 
 5.88069e-03  3.71014e-03 -5.35987e-21  3.47944e+00  1.00000e-05  3.57659e+02  3.60046e+02  3.63406e+00  3.63417e+00  7.93020e-05  6.61861e+00  3.48614e+03 2.71194e-186 -4.44869e+04  9.30404e+03  0.00000e+00 -3.51829e+04  1.40738e+08  1.40703e+08  8.12769e-05  1.00000e+00 -6.61875e+00  0.00000e+00  7.30210e-01 
 6.03395e-03  3.94857e-03  5.10973e-21  3.47944e+00  1.31593e-05  3.57755e+02  3.60046e+02  3.62018e+00  3.62038e+00  3.42314e-04  2.79649e+01  2.64918e+03 4.64440e-103 -1.20762e+05  7.57312e+03  0.00000e+00 -1.13189e+05  1.01631e+08  1.01518e+08  3.53406e-04  1.00000e+00 -2.79655e+01  0.00000e+00  7.96258e-01 
 6.19261e-03  4.18701e-03  0.00000e+00  3.47944e+00  2.03751e-05  3.57855e+02  3.60046e+02  3.60536e+00  3.60589e+00  9.69294e-04  8.18231e+01  1.71099e+03  1.01977e-42 -1.69648e+05  5.18499e+03  0.00000e+00 -1.64463e+05  6.90256e+07  6.88612e+07  9.92734e-04  1.00000e+00 -8.18250e+01  0.00000e+00  8.69888e-01 
 6.35626e-03  4.42546e-03  0.00000e+00  3.47944e+00  3.08352e-05  3.57958e+02  3.60046e+02  3.58974e+00  3.59097e+00  2.08656e-03  1.04382e+02  1.13058e+03  2.64540e-16 -1.87146e+05  3.93828e+03  0.00000e+00 -1.83208e+05  2.79384e+07  2.77552e+07  2.09656e-03  1.00000e+00 -1.04385e+02  0.00000e+00  9.52222e-01 
 6.52453e-03  4.66392e-03 -8.96437e-21  3.47944e+00  4.13085e-05  3.58062e+02  3.60046e+02  3.57303e+00  3.57525e+00  3.54216e-03  1.10087e+02  8.43931e+02  4.00224e-06 -1.98105e+05  2.97562e+03  0.00000e+00 -1.95129e+05  1.29881e+07  1.27929e+07  3.54795e-03  1.00000e+00 -1.10090e+02  0.00000e+00  1.04486e+00 
 6.69707e-03  4.90238e-03  1.72236e-20  3.47944e+00  5.05549e-05  3.58167e+02  3.60046e+02  3.55525e+00  3.55890e+00  5.30435e-03  1.10113e+02  6.89580e+02  1.08661e-01 -2.16276e+05  2.43249e+03  0.00000e+00 -2.13843e+05  7.09515e+06  6.88131e+06  5.30688e-03  1.00000e+00 -1.10116e+02  0.00000e+00  1.14997e+00 
 6.87356e-03  5.14086e-03  8.28595e-21  3.47944e+00  5.86428e-05  3.58275e+02  3.60046e+02  3.53596e+00  3.54089e+00  7.66966e-03  1.17878e+02  5.94474e+02  2.36269e+01 -2.50187e+05  2.09114e+03  0.00000e+00 -2.48072e+05  4.52976e+06  4.28169e+06  7.67061e-03  1.00000e+00 -1.17881e+02  0.00000e+00  1.27035e+00 
 7.05370e-03  5.37934e-03 -1.59677e-20  3.47944e+00  6.61952e-05  3.58386e+02  3.60046e+02  3.51530e+00  3.52141e+00  1.07970e-02  1.28922e+02  5.26650e+02  6.63592e+02 -2.95566e+05  1.84622e+03  0.00000e+00 -2.93056e+05  3.11798e+06  2.82493e+06  1.07970e-02  1.00000e+00 -1.28926e+02  0.00000e+00  1.40930e+00 
 7.23722e-03  5.61783e-03  0.00000e+00  3.47944e+00  7.35102e-05  3.58499e+02  3.60046e+02  3.49268e+00  3.49992e+00  1.48293e-02  1.41498e+02  4.74243e+02  6.25825e+03 -3.50772e+05  1.65569e+03  0.00000e+00 -3.42858e+05  2.24373e+06  1.90087e+06  1.48287e-02  1.00000e+00 -1.41503e+02  0.00000e+00  1.57108e+00 
 7.42387e-03  5.85632e-03  0.00000e+00  3.47944e+00  8.05685e-05  3.58613e+02  3.60046e+02  3.46811e+00  3.47640e+00  1.99410e-02  1.55374e+02  4.32697e+02  2.97279e+04 -4.17433e+05  1.50292e+03  0.00000e+00 -3.86203e+05  1.67170e+06  1.28550e+06  1.99399e-02  1.00000e+00 -1.55379e+02  0.00000e+00  1.76078e+00 
 7.61342e-03  6.09482e-03  0.00000e+00  3.47944e+00  8.72626e-05  3.58730e+02  3.60046e+02  3.44099e+00  3.45023e+00  2.63347e-02  1.70487e+02  3.99505e+02  8.95062e+04 -4.98688e+05  1.37917e+03  0.00000e+00 -4.07803e+05  1.28241e+06  8.74612e+05  2.63331e-02  1.00000e+00 -1.70493e+02  0.00000e+00  1.98484e+00 
 7.80566e-03  6.33332e-03  0.00000e+00  3.47944e+00  9.35161e-05  3.58847e+02  3.60046e+02  3.41110e+00  3.42118e+00  3.42367e-02  1.86580e+02  3.72790e+02  1.98217e+05 -5.98261e+05  1.27763e+03  0.00000e+00 -3.98766e+05  1.00736e+06  6.08589e+05  3.42346e-02  1.00000e+00 -1.86587e+02  0.00000e+00  2.25116e+00 
 8.00039e-03  6.57182e-03  0.00000e+00  3.47944e+00  9.93617e-05  3.58964e+02  3.60046e+02  3.37782e+00  3.38863e+00  4.38857e-02  2.02967e+02  3.50859e+02  3.57140e+05 -7.19446e+05  1.19223e+03  0.00000e+00 -3.61113e+05  8.04600e+05  4.43487e+05  4.38832e-02  1.00000e+00 -2.02976e+02  0.00000e+00  2.56989e+00 
 8.19744e-03  6.81033e-03  1.31016e-20  3.47944e+00  1.04950e-04  3.59081e+02  3.60046e+02  3.34064e+00  3.35213e+00  5.55300e-02  2.18460e+02  3.32177e+02  5.59538e+05 -8.64378e+05  1.11748e+03  0.00000e+00 -3.03722e+05  6.47975e+05  3.44253e+05  5.55268e-02  1.00000e+00 -2.18470e+02  0.00000e+00  2.95417e+00 
 8.39664e-03  7.04884e-03  0.00000e+00  3.47944e+00  1.10505e-04  3.59196e+02  3.60047e+02  3.29868e+00  3.31088e+00  6.93615e-02  2.29180e+02  3.15480e+02  7.95658e+05 -1.03291e+06  1.04880e+03  0.00000e+00 -2.36203e+05  5.16857e+05  2.80653e+05  6.93581e-02  1.00000e+00 -2.29192e+02  0.00000e+00  3.42335e+00 
 8.59784e-03  7.28736e-03  0.00000e+00  3.47944e+00  1.16229e-04  3.59308e+02  3.60047e+02  3.25106e+00  3.26393e+00  8.55629e-02  2.32269e+02  2.99943e+02  1.05269e+06 -1.22387e+06  9.83210e+02  0.00000e+00 -1.70193e+05  4.03726e+05  2.33533e+05  8.55584e-02  1.00000e+00 -2.32283e+02  0.00000e+00  4.00211e+00 
 8.80092e-03  7.52587e-03  0.00000e+00  3.47944e+00  1.22238e-04  3.59417e+02  3.60047e+02  3.19624e+00  3.20932e+00  1.04043e-01  2.27977e+02  2.85199e+02  1.31723e+06 -1.43303e+06  9.19311e+02  0.00000e+00 -1.14880e+05  3.09855e+05  1.94975e+05  1.04040e-01  1.00000e+00 -2.27993e+02  0.00000e+00  4.72606e+00 
 9.00573e-03  7.76439e-03 -1.17014e-20  3.47944e+00  1.28603e-04  3.59522e+02  3.60047e+02  3.13316e+00  3.14657e+00  1.24740e-01  2.15323e+02  2.71086e+02  1.57672e+06 -1.65694e+06  8.56335e+02  0.00000e+00 -7.93601e+04  2.32023e+05  1.52663e+05  1.24734e-01  1.00000e+00 -2.15340e+02  0.00000e+00  5.64197e+00 
 9.21216e-03  8.00291e-03  0.00000e+00  3.47944e+00  1.35183e-04  3.59624e+02  3.60047e+02  3.05902e+00  3.07272e+00  1.47033e-01  1.93523e+02  2.57892e+02  1.82672e+06 -1.89101e+06  7.94908e+02  0.00000e+00 -6.34891e+04  1.68302e+05  1.04813e+05  1.47029e-01  1.00000e+00 -1.93542e+02  0.00000e+00  6.82733e+00 
 9.42012e-03  8.24144e-03  0.00000e+00  3.47944e+00  1.41625e-04  3.59725e+02  3.60047e+02  2.97296e+00  2.98681e+00  1.70580e-01  1.62749e+02  2.46162e+02  2.07102e+06 -2.14207e+06  7.36347e+02  0.00000e+00 -7.03109e+04  1.16454e+05  4.61428e+04  1.70575e-01  1.00000e+00 -1.62770e+02  0.00000e+00  8.40005e+00 
 9.62949e-03  8.47996e-03  0.00000e+00  3.47944e+00  1.47241e-04  3.59828e+02  3.60048e+02  2.86928e+00  2.88327e+00  1.94377e-01  1.22149e+02  2.36774e+02  2.33726e+06 -2.42634e+06  6.82260e+02  0.00000e+00 -8.84030e+04  7.37786e+04 -1.46244e+04  1.94375e-01  1.00000e+00 -1.22170e+02  0.00000e+00  1.06101e+01 
 9.84019e-03  8.71849e-03  0.00000e+00  3.47944e+00  1.51346e-04  3.59938e+02  3.60048e+02  2.74514e+00  2.75920e+00  2.17960e-01  6.81688e+01  2.30353e+02  2.67275e+06 -2.77885e+06  6.33133e+02  0.00000e+00 -1.05464e+05  3.57298e+04 -6.97340e+04  2.17954e-01  1.00000e+00 -6.81921e+01  0.00000e+00  1.39624e+01 
 1.00521e-02  8.95702e-03  0.00000e+00  3.47944e+00  1.53423e-04  3.60070e+02  3.60048e+02  2.58383e+00  2.59834e+00  2.40317e-01 -2.33350e+01  2.27237e+02  3.18849e+06 -3.25301e+06  5.84766e+02  0.00000e+00 -6.39370e+04 -1.09189e+04 -7.48559e+04  2.40313e-01  1.00000e+00  2.32921e+01  0.00000e+00  1.99051e+01 
 1.02653e-02  9.19555e-03  0.00000e+00  3.47944e+00  1.54666e-04  3.60267e+02  3.60049e+02  2.35807e+00  2.37228e+00  2.62996e-01 -3.28681e+02  2.25412e+02  4.07192e+06 -3.89411e+06  5.23536e+02  0.00000e+00  1.78326e+05 -1.39646e+05  3.86805e+04  2.62984e-01  1.00000e+00  3.28636e+02  0.00000e+00  3.32104e+01 
 1.04795e-02  9.43408e-03  0.00000e+00  3.47944e+00  1.60465e-04  3.60765e+02  3.60049e+02  1.96386e+00  1.97622e+00  2.84205e-01 -3.99610e+03  2.17269e+02  5.88122e+06 -4.31708e+06  4.41541e+02  1.36274e+06  2.92732e+06 -2.97099e+06 -4.36743e+04  2.84193e-01  1.00000e+00  3.99606e+03  2.85755e+03  8.41592e+01 
