# Code_Saturne plot output (1D profile)
#
# Iteration output: 4200
# Time output:      2.30000e+01
#
#COLUMN_TITLES: Distance | X | Y | Z | diameter_Field2 | temp_Field1 | temp_Field2 | Velocity_Field1[Z] | Velocity_Field2[Z] | vol_f_Field2 | mass_trans_Field1 | Xd_Field2 | BK | COAL | COMP | NUCL | W1 | MT | SMBR | ALPBB | CONDNUM | GAMA | GAMANUC | epsilon_Field1
 4.56474e-03  1.39645e-04  0.00000e+00  3.47944e+00  7.71482e-05  3.59524e+02  3.60051e+02  4.69207e+00  4.70506e+00  4.56069e-02  1.07831e+02  4.51716e+02  5.31784e-03 -5.72396e+05  2.56569e+03  0.00000e+00 -5.69831e+05  2.51385e+05 -3.18445e+05  4.56168e-02  1.00000e+00 -1.07498e+02  0.00000e+00  3.41171e-01 
 4.57812e-03  3.76525e-04  4.25872e-21  3.47944e+00  9.58303e-05  3.59526e+02  3.60051e+02  4.69168e+00  4.70903e+00  4.64901e-02  8.16188e+01  3.63654e+02  5.39862e+00 -4.04304e+05  2.06515e+03  0.00000e+00 -4.02233e+05  1.50276e+05 -2.51958e+05  4.64989e-02  1.00000e+00 -8.13649e+01  0.00000e+00  3.45623e-01 
 4.60371e-03  6.13858e-04  0.00000e+00  3.47944e+00  1.11755e-04  3.59530e+02  3.60051e+02  4.69049e+00  4.71150e+00  4.81132e-02  6.84217e+01  3.11835e+02  1.82371e+02 -3.24023e+05  1.77149e+03  0.00000e+00 -3.22069e+05  1.04381e+05 -2.17688e+05  4.81216e-02  1.00000e+00 -6.82066e+01  0.00000e+00  3.54379e-01 
 4.64138e-03  8.51483e-04  0.00000e+00  3.47944e+00  1.25080e-04  3.59538e+02  3.60051e+02  4.68870e+00  4.71270e+00  5.04646e-02  6.13296e+01  2.78614e+02  1.42127e+03 -2.83329e+05  1.58304e+03  0.00000e+00 -2.80325e+05  7.96959e+04 -2.00629e+05  5.04731e-02  1.00000e+00 -6.11339e+01  0.00000e+00  3.67628e-01 
 4.69084e-03  1.08931e-03  0.00000e+00  3.47944e+00  1.36507e-04  3.59549e+02  3.60051e+02  4.68628e+00  4.71274e+00  5.35752e-02  5.73690e+01  2.55291e+02  5.53630e+03 -2.62715e+05  1.45060e+03  0.00000e+00 -2.55728e+05  6.43382e+04 -1.91390e+05  5.35842e-02  1.00000e+00 -5.71822e+01  0.00000e+00  3.85645e-01 
 4.75174e-03  1.32727e-03  1.05001e-20  3.47944e+00  1.46263e-04  3.59562e+02  3.60051e+02  4.68322e+00  4.71170e+00  5.74861e-02  5.53585e+01  2.38262e+02  1.45453e+04 -2.54910e+05  1.35380e+03  0.00000e+00 -2.39011e+05  5.39954e+04 -1.85016e+05  5.74958e-02  1.00000e+00 -5.51734e+01  0.00000e+00  4.08817e-01 
 4.82366e-03  1.56534e-03  0.00000e+00  3.47944e+00  1.54396e-04  3.59579e+02  3.60051e+02  4.67950e+00  4.70958e+00  6.22470e-02  5.47356e+01  2.25712e+02  2.98231e+04 -2.56852e+05  1.28224e+03  0.00000e+00 -2.25747e+05  4.67016e+04 -1.79046e+05  6.22580e-02  1.00000e+00 -5.45464e+01  0.00000e+00  4.37702e-01 
 4.90611e-03  1.80349e-03  8.81027e-21  3.47944e+00  1.60948e-04  3.59598e+02  3.60051e+02  4.67510e+00  4.70639e+00  6.79257e-02  5.48026e+01  2.16524e+02  5.18838e+04 -2.67258e+05  1.22943e+03  0.00000e+00 -2.14145e+05  4.10998e+04 -1.73045e+05  6.79373e-02  1.00000e+00 -5.46054e+01  0.00000e+00  4.72977e-01 
 4.99859e-03  2.04170e-03  0.00000e+00  3.47944e+00  1.66014e-04  3.59620e+02  3.60051e+02  4.66991e+00  4.70226e+00  7.45406e-02  5.55923e+01  2.09916e+02  8.07444e+04 -2.85515e+05  1.19226e+03  0.00000e+00 -2.03578e+05  3.68272e+04 -1.66751e+05  7.45515e-02  1.00000e+00 -5.53827e+01  0.00000e+00  5.15461e-01 
 5.10055e-03  2.27996e-03  7.58893e-21  3.47944e+00  1.69761e-04  3.59643e+02  3.60051e+02  4.66921e+00  4.70415e+00  8.21501e-02  5.70055e+01  2.05283e+02  1.16813e+05 -3.11799e+05  1.15909e+03  0.00000e+00 -1.93826e+05  3.35026e+04 -1.60324e+05  8.21608e-02  1.00000e+00 -5.67787e+01  0.00000e+00  5.66878e-01 
 5.21143e-03  2.51826e-03  7.09702e-21  3.47944e+00  1.72395e-04  3.59669e+02  3.60051e+02  4.66214e+00  4.69735e+00  9.08080e-02  5.86331e+01  2.02146e+02  1.60548e+05 -3.46476e+05  1.14042e+03  0.00000e+00 -1.84788e+05  3.06898e+04 -1.54099e+05  9.08194e-02  1.00000e+00 -5.83851e+01  0.00000e+00  6.28508e-01 
 5.33068e-03  2.75659e-03  1.33300e-20  3.47944e+00  1.74133e-04  3.59696e+02  3.60051e+02  4.65414e+00  4.68932e+00  1.00540e-01  6.03835e+01  2.00129e+02  2.12064e+05 -3.89917e+05  1.12778e+03  0.00000e+00 -1.76725e+05  2.82534e+04 -1.48472e+05  1.00552e-01  1.00000e+00 -6.01099e+01  0.00000e+00  7.01025e-01 
 5.45775e-03  2.99495e-03  1.25651e-20  3.47944e+00  1.75176e-04  3.59724e+02  3.60051e+02  4.64496e+00  4.67998e+00  1.11330e-01  6.20551e+01  1.98938e+02  2.72235e+05 -4.42701e+05  1.11971e+03  0.00000e+00 -1.69346e+05  2.60560e+04 -1.43290e+05  1.11343e-01  1.00000e+00 -6.17516e+01  0.00000e+00  7.86394e-01 
 5.59212e-03  3.23333e-03  0.00000e+00  3.47944e+00  1.75704e-04  3.59752e+02  3.60051e+02  4.63444e+00  4.66903e+00  1.23170e-01  6.34580e+01  1.98340e+02  3.41927e+05 -5.05525e+05  1.11485e+03  0.00000e+00 -1.62483e+05  2.40012e+04 -1.38482e+05  1.23183e-01  1.00000e+00 -6.31204e+01  0.00000e+00  8.86733e-01 
 5.73326e-03  3.47172e-03  0.00000e+00  3.47944e+00  1.75871e-04  3.59780e+02  3.60051e+02  4.62239e+00  4.65643e+00  1.36004e-01  6.44204e+01  1.98151e+02  4.21925e+05 -5.78959e+05  1.11200e+03  0.00000e+00 -1.55922e+05  2.20338e+04 -1.33888e+05  1.36018e-01  1.00000e+00 -6.40445e+01  0.00000e+00  1.00444e+00 
 5.88069e-03  3.71014e-03 -5.35987e-21  3.47944e+00  1.75809e-04  3.59808e+02  3.60051e+02  4.60858e+00  4.64199e+00  1.49760e-01  6.47904e+01  1.98221e+02  5.12776e+05 -6.63448e+05  1.11027e+03  0.00000e+00 -1.49562e+05  2.01197e+04 -1.29442e+05  1.49774e-01  1.00000e+00 -6.43725e+01  0.00000e+00  1.14219e+00 
 6.03395e-03  3.94857e-03  5.10973e-21  3.47944e+00  1.75623e-04  3.59835e+02  3.60051e+02  4.59278e+00  4.62548e+00  1.64322e-01  6.44431e+01  1.98431e+02  6.14726e+05 -7.59136e+05  1.10891e+03  0.00000e+00 -1.43302e+05  1.82443e+04 -1.25058e+05  1.64336e-01  1.00000e+00 -6.39798e+01  0.00000e+00  1.30298e+00 
 6.19261e-03  4.18701e-03  0.00000e+00  3.47944e+00  1.75403e-04  3.59861e+02  3.60051e+02  4.57471e+00  4.60667e+00  1.79550e-01  6.32965e+01  1.98680e+02  7.27604e+05 -8.65847e+05  1.10729e+03  0.00000e+00 -1.37136e+05  1.64058e+04 -1.20730e+05  1.79564e-01  1.00000e+00 -6.27850e+01  0.00000e+00  1.49005e+00 
 6.35626e-03  4.42546e-03  0.00000e+00  3.47944e+00  1.75217e-04  3.59886e+02  3.60051e+02  4.55410e+00  4.58529e+00  1.95288e-01  6.13191e+01  1.98892e+02  8.50813e+05 -9.83028e+05  1.10493e+03  0.00000e+00 -1.31110e+05  1.46125e+04 -1.16498e+05  1.95299e-01  1.00000e+00 -6.07574e+01  0.00000e+00  1.70693e+00 
 6.52453e-03  4.66392e-03 -8.96437e-21  3.47944e+00  1.75114e-04  3.59909e+02  3.60051e+02  4.53067e+00  4.56108e+00  2.11333e-01  5.85282e+01  1.99008e+02  9.83348e+05 -1.10963e+06  1.10131e+03  0.00000e+00 -1.25177e+05  1.28792e+04 -1.12298e+05  2.11340e-01  1.00000e+00 -5.79151e+01  0.00000e+00  1.95732e+00 
 6.69707e-03  4.90238e-03  1.72236e-20  3.47944e+00  1.75131e-04  3.59930e+02  3.60051e+02  4.50417e+00  4.53379e+00  2.27528e-01  5.50020e+01  1.98989e+02  1.12383e+06 -1.24447e+06  1.09632e+03  0.00000e+00 -1.19539e+05  1.12226e+04 -1.08317e+05  2.27532e-01  1.00000e+00 -5.43374e+01  0.00000e+00  2.24512e+00 
 6.87356e-03  5.14086e-03  8.28595e-21  3.47944e+00  1.75277e-04  3.59950e+02  3.60051e+02  4.47430e+00  4.50311e+00  2.43650e-01  5.08507e+01  1.98824e+02  1.27075e+06 -1.38594e+06  1.08980e+03  0.00000e+00 -1.14093e+05  9.66137e+03 -1.04431e+05  2.43656e-01  1.00000e+00 -5.01350e+01  0.00000e+00  2.57440e+00 
 7.05370e-03  5.37934e-03 -1.59677e-20  3.47944e+00  1.75553e-04  3.59967e+02  3.60051e+02  4.44090e+00  4.46891e+00  2.59673e-01  4.62400e+01  1.98512e+02  1.42229e+06 -1.53327e+06  1.08162e+03  0.00000e+00 -1.09899e+05  8.20956e+03 -1.01689e+05  2.59680e-01  1.00000e+00 -4.54743e+01  0.00000e+00  2.94935e+00 
 7.23722e-03  5.61783e-03  0.00000e+00  3.47944e+00  1.75923e-04  3.59983e+02  3.60051e+02  4.40381e+00  4.43103e+00  2.75408e-01  4.13240e+01  1.98095e+02  1.57808e+06 -1.68555e+06  1.07161e+03  0.00000e+00 -1.06402e+05  6.88090e+03 -9.95207e+04  2.75419e-01  1.00000e+00 -4.05097e+01  0.00000e+00  3.37692e+00 
 7.42387e-03  5.85632e-03  0.00000e+00  3.47944e+00  1.76345e-04  3.59998e+02  3.60051e+02  4.36291e+00  4.38935e+00  2.90721e-01  3.62509e+01  1.97621e+02  1.73638e+06 -1.84172e+06  1.06051e+03  0.00000e+00 -1.04283e+05  5.68086e+03 -9.86019e+04  2.90738e-01  1.00000e+00 -3.53898e+01  0.00000e+00  3.86078e+00 
 7.61342e-03  6.09482e-03  0.00000e+00  3.47944e+00  1.76738e-04  3.60010e+02  3.60051e+02  4.31804e+00  4.34370e+00  3.05422e-01  3.11569e+01  1.97183e+02  1.89803e+06 -2.00180e+06  1.04842e+03  0.00000e+00 -1.02726e+05  4.61191e+03 -9.81140e+04  3.05443e-01  1.00000e+00 -3.02509e+01  0.00000e+00  4.40935e+00 
 7.80566e-03  6.33332e-03  0.00000e+00  3.47944e+00  1.77023e-04  3.60022e+02  3.60052e+02  4.26905e+00  4.29394e+00  3.19444e-01  2.61730e+01  1.96867e+02  2.06417e+06 -2.16690e+06  1.03620e+03  0.00000e+00 -1.01693e+05  3.67076e+03 -9.80224e+04  3.19464e-01  1.00000e+00 -2.52233e+01  0.00000e+00  5.03231e+00 
 8.00039e-03  6.57182e-03  0.00000e+00  3.47944e+00  1.77098e-04  3.60031e+02  3.60052e+02  4.21569e+00  4.23979e+00  3.32793e-01  2.13877e+01  1.96784e+02  2.23742e+06 -2.34006e+06  1.02401e+03  0.00000e+00 -1.01623e+05  2.84785e+03 -9.87752e+04  3.32811e-01  1.00000e+00 -2.03950e+01  0.00000e+00  5.74379e+00 
 8.19744e-03  6.81033e-03  1.31016e-20  3.47944e+00  1.76871e-04  3.60040e+02  3.60052e+02  4.15763e+00  4.18088e+00  3.45583e-01  1.68614e+01  1.97038e+02  2.42128e+06 -2.52601e+06  1.01247e+03  0.00000e+00 -1.03713e+05  2.13063e+03 -1.01583e+05  3.45606e-01  1.00000e+00 -1.58248e+01  0.00000e+00  6.56344e+00 
 8.39664e-03  7.04884e-03  0.00000e+00  3.47944e+00  1.76206e-04  3.60047e+02  3.60052e+02  4.09443e+00  4.11678e+00  3.57881e-01  1.26066e+01  1.97782e+02  2.62236e+06 -2.73197e+06  1.00174e+03  0.00000e+00 -1.08610e+05  1.50391e+03 -1.07106e+05  3.57905e-01  1.00000e+00 -1.15239e+01  0.00000e+00  7.52260e+00 
 8.59784e-03  7.28736e-03  0.00000e+00  3.47944e+00  1.74980e-04  3.60054e+02  3.60052e+02  4.02510e+00  4.04652e+00  3.69676e-01  8.59366e+00  1.99168e+02  2.84767e+06 -2.96574e+06  9.92647e+02  0.00000e+00 -1.17079e+05  9.49215e+02 -1.16129e+05  3.69699e-01  1.00000e+00 -7.46084e+00  0.00000e+00  8.65666e+00 
 8.80092e-03  7.52587e-03  0.00000e+00  3.47944e+00  1.73009e-04  3.60059e+02  3.60053e+02  3.94945e+00  3.96982e+00  3.81010e-01  4.76136e+00  2.01439e+02  3.11105e+06 -3.24180e+06  9.85730e+02  0.00000e+00 -1.29758e+05  4.45971e+02 -1.29312e+05  3.81026e-01  1.00000e+00 -3.57199e+00  0.00000e+00  1.00315e+01 
 9.00573e-03  7.76439e-03 -1.17014e-20  3.47944e+00  1.70139e-04  3.60064e+02  3.60053e+02  3.86412e+00  3.88335e+00  3.91964e-01  1.83184e+00  2.04838e+02  3.42830e+06 -3.57848e+06  9.81588e+02  0.00000e+00 -1.49192e+05 -8.10180e+01 -1.49273e+05  3.91983e-01  1.00000e+00  6.56495e-01  0.00000e+00  1.17313e+01 
 9.21216e-03  8.00291e-03  0.00000e+00  3.47944e+00  1.66103e-04  3.60069e+02  3.60053e+02  3.77114e+00  3.78906e+00  4.02723e-01 -6.76914e+00  2.09816e+02  3.83178e+06 -4.01132e+06  9.81195e+02  0.00000e+00 -1.78555e+05 -1.15630e+03 -1.79711e+05  4.02743e-01  1.00000e+00  9.39836e+00  0.00000e+00  1.39259e+01 
 9.42012e-03  8.24144e-03  0.00000e+00  3.47944e+00  1.60652e-04  3.60074e+02  3.60054e+02  3.65946e+00  3.67597e+00  4.13386e-01 -1.75911e+01  2.16938e+02  4.36374e+06 -4.59022e+06  9.84641e+02  0.00000e+00 -2.25494e+05 -2.52742e+03 -2.28022e+05  4.13413e-01  1.00000e+00  2.03947e+01  0.00000e+00  1.68472e+01 
 9.62949e-03  8.47996e-03  0.00000e+00  3.47944e+00  1.53266e-04  3.60080e+02  3.60054e+02  3.53588e+00  3.55039e+00  4.23938e-01 -3.44984e+01  2.27393e+02  5.12469e+06 -5.42251e+06  9.97017e+02  0.00000e+00 -2.96818e+05 -4.75363e+03 -3.01571e+05  4.23975e-01  1.00000e+00  3.75304e+01  0.00000e+00  2.10285e+01 
 9.84019e-03  8.71849e-03  0.00000e+00  3.47944e+00  1.43524e-04  3.60091e+02  3.60055e+02  3.37142e+00  3.38415e+00  4.34531e-01 -6.79596e+01  2.42831e+02  6.26849e+06 -6.69177e+06  1.01564e+03  0.00000e+00 -4.22264e+05 -9.40842e+03 -4.31672e+05  4.34579e-01  1.00000e+00  7.12981e+01  0.00000e+00  2.73064e+01 
 1.00521e-02  8.95702e-03  0.00000e+00  3.47944e+00  1.30345e-04  3.60116e+02  3.60055e+02  3.18898e+00  3.20000e+00  4.45387e-01 -1.53525e+02  2.67385e+02  8.30909e+06 -8.92844e+06  1.04996e+03  0.00000e+00 -6.18307e+05 -2.23012e+04 -6.40608e+05  4.45447e-01  1.00000e+00  1.57318e+02  0.00000e+00  3.86828e+01 
 1.02653e-02  9.19555e-03  0.00000e+00  3.47944e+00  1.13203e-04  3.60185e+02  3.60056e+02  2.89310e+00  2.90227e+00  4.56928e-01 -4.59671e+02  3.07880e+02  1.25400e+07 -1.34219e+07  1.08725e+03  0.00000e+00 -8.80759e+05 -7.38452e+04 -9.54604e+05  4.57002e-01  1.00000e+00  4.64156e+02  0.00000e+00  6.37531e+01 
 1.04795e-02  9.43408e-03  0.00000e+00  3.47944e+00  9.24282e-05  3.60510e+02  3.60057e+02  2.43874e+00  2.44364e+00  4.73072e-01 -5.73052e+03  3.77087e+02  2.49369e+07 -2.47639e+07  1.16422e+03  2.54639e+06  2.72052e+06 -2.85322e+06 -1.32695e+05  4.73130e-01  1.00000e+00  5.73609e+03  3.33825e+03  1.59302e+02 
