# Code_Saturne plot output (1D profile)
#
# Iteration output: 5135
# Time output:      2.30009e+01
#
#COLUMN_TITLES: Distance | X | Y | Z | diameter_Field2 | temp_Field1 | temp_Field2 | Velocity_Field1[Z] | Velocity_Field2[Z] | vol_f_Field2 | mass_trans_Field1 | Xd_Field2 | BK | COAL | COMP | NUCL | W1 | MT | SMBR | ALPBB | CONDNUM | GAMA | GAMANUC | epsilon_Field1
 4.56474e-03  1.39645e-04  0.00000e+00  3.47944e+00  9.61416e-05  3.60056e+02  3.60056e+02  5.25041e+00  5.26888e+00  1.41017e-01  7.73426e+00  3.62387e+02  2.71591e+02 -1.20977e+06  2.58755e+03  0.00000e+00 -1.20691e+06  9.15339e+03 -1.19776e+06  1.41024e-01  1.00000e+00 -7.44598e+00  0.00000e+00  5.15276e-01 
 4.57812e-03  3.76525e-04  4.25872e-21  3.47944e+00  1.29023e-04  3.60056e+02  3.60055e+02  5.24959e+00  5.27646e+00  1.42299e-01  5.17639e+00  2.70032e+02  1.56300e+04 -7.40155e+05  1.93036e+03  0.00000e+00 -7.22595e+05  4.52014e+03 -7.18075e+05  1.42304e-01  1.00000e+00 -4.97895e+00  0.00000e+00  5.23657e-01 
 4.60371e-03  6.13858e-04  0.00000e+00  3.47944e+00  1.55714e-04  3.60057e+02  3.60055e+02  5.24794e+00  5.28166e+00  1.44766e-01  3.96612e+00  2.23746e+02  7.23138e+04 -5.49812e+05  1.60120e+03  0.00000e+00 -4.75897e+05  2.81649e+03 -4.73081e+05  1.44771e-01  1.00000e+00 -3.80892e+00  0.00000e+00  5.39860e-01 
 4.64138e-03  8.51483e-04  0.00000e+00  3.47944e+00  1.74506e-04  3.60058e+02  3.60055e+02  5.24567e+00  5.28415e+00  1.48342e-01  3.30623e+00  1.99652e+02  1.42653e+05 -4.69138e+05  1.42964e+03  0.00000e+00 -3.25055e+05  2.03930e+03 -3.23016e+05  1.48347e-01  1.00000e+00 -3.16699e+00  0.00000e+00  5.64141e-01 
 4.69084e-03  1.08931e-03  0.00000e+00  3.47944e+00  1.86512e-04  3.60059e+02  3.60055e+02  5.24267e+00  5.28409e+00  1.53079e-01  2.87685e+00  1.86799e+02  2.05482e+05 -4.39080e+05  1.33781e+03  0.00000e+00 -2.32260e+05  1.60234e+03 -2.30657e+05  1.53083e-01  1.00000e+00 -2.74450e+00  0.00000e+00  5.96919e-01 
 4.75174e-03  1.32727e-03  1.05001e-20  3.47944e+00  1.93285e-04  3.60061e+02  3.60055e+02  5.23888e+00  5.28178e+00  1.58948e-01  2.53742e+00  1.80254e+02  2.59893e+05 -4.37673e+05  1.29060e+03  0.00000e+00 -1.76490e+05  1.30516e+03 -1.75185e+05  1.58951e-01  1.00000e+00 -2.40548e+00  0.00000e+00  6.38959e-01 
 4.82366e-03  1.56534e-03  0.00000e+00  3.47944e+00  1.96372e-04  3.60062e+02  3.60055e+02  5.23420e+00  5.27752e+00  1.65961e-01  2.21253e+00  1.77420e+02  3.10659e+05 -4.55465e+05  1.26952e+03  0.00000e+00 -1.43537e+05  1.06217e+03 -1.42475e+05  1.65965e-01  1.00000e+00 -2.07667e+00  0.00000e+00  6.91254e-01 
 4.90611e-03  1.80349e-03  8.81027e-21  3.47944e+00  1.97035e-04  3.60064e+02  3.60055e+02  5.22852e+00  5.27155e+00  1.74073e-01  1.85561e+00  1.76823e+02  3.62406e+05 -4.87954e+05  1.26403e+03  0.00000e+00 -1.24284e+05  8.32365e+02 -1.23451e+05  1.74077e-01  1.00000e+00 -1.71268e+00  0.00000e+00  7.55093e-01 
 4.99859e-03  2.04170e-03  0.00000e+00  3.47944e+00  1.96185e-04  3.60067e+02  3.60055e+02  5.22172e+00  5.26398e+00  1.83255e-01  1.43743e+00  1.77589e+02  4.18570e+05 -5.33109e+05  1.26790e+03  0.00000e+00 -1.13271e+05  5.95777e+02 -1.12675e+05  1.83252e-01  1.00000e+00 -1.28492e+00  0.00000e+00  8.31992e-01 
 5.10055e-03  2.27996e-03  7.58893e-21  3.47944e+00  1.94426e-04  3.60069e+02  3.60055e+02  5.21364e+00  5.25485e+00  1.93430e-01  9.40930e-01  1.79196e+02  4.81614e+05 -5.90066e+05  1.27736e+03  0.00000e+00 -1.07175e+05  3.44301e+02 -1.06831e+05  1.93412e-01  1.00000e+00 -7.76706e-01  0.00000e+00  9.23711e-01 
 5.21143e-03  2.51826e-03  7.09702e-21  3.47944e+00  1.92147e-04  3.60071e+02  3.60055e+02  5.20409e+00  5.24407e+00  2.04520e-01  3.60342e-01  1.81321e+02  5.53258e+05 -6.58697e+05  1.29008e+03  0.00000e+00 -1.04149e+05  7.74294e+01 -1.04072e+05  2.04494e-01  1.00000e+00 -1.82515e-01  0.00000e+00  1.03220e+00 
 5.33068e-03  2.75659e-03  1.33300e-20  3.47944e+00  1.89597e-04  3.60073e+02  3.60055e+02  5.19288e+00  5.23173e+00  2.16354e-01 -6.99156e-01  1.83760e+02  6.34726e+05 -7.38913e+05  1.30548e+03  0.00000e+00 -1.02881e+05 -4.46602e+02 -1.03328e+05  2.16339e-01  1.00000e+00  1.09891e+00  0.00000e+00  1.15957e+00 
 5.45775e-03  2.99495e-03  1.25651e-20  3.47944e+00  1.86924e-04  3.60075e+02  3.60055e+02  5.18540e+00  5.22468e+00  2.28805e-01 -2.23649e+00  1.86388e+02  7.28404e+05 -8.31370e+05  1.31245e+03  0.00000e+00 -1.01653e+05 -1.04072e+03 -1.02694e+05  2.28831e-01  1.00000e+00  2.67048e+00  0.00000e+00  1.31028e+00 
 5.59212e-03  3.23333e-03  0.00000e+00  3.47944e+00  1.84244e-04  3.60077e+02  3.60055e+02  5.17002e+00  5.20777e+00  2.41865e-01 -3.89881e+00  1.89099e+02  8.34565e+05 -9.36299e+05  1.33010e+03  0.00000e+00 -1.00404e+05 -1.63416e+03 -1.02038e+05  2.41885e-01  1.00000e+00  4.36891e+00  0.00000e+00  1.48679e+00 
 5.73326e-03  3.47172e-03  0.00000e+00  3.47944e+00  1.81635e-04  3.60079e+02  3.60055e+02  5.15233e+00  5.18852e+00  2.55305e-01 -5.62546e+00  1.91815e+02  9.51736e+05 -1.05305e+06  1.34515e+03  0.00000e+00 -9.99710e+04 -2.20466e+03 -1.02176e+05  2.55327e-01  1.00000e+00  6.13355e+00  0.00000e+00  1.68956e+00 
 5.88069e-03  3.71014e-03 -5.35987e-21  3.47944e+00  1.79143e-04  3.60080e+02  3.60055e+02  5.13216e+00  5.16681e+00  2.68954e-01 -7.36359e+00  1.94484e+02  1.08013e+06 -1.18131e+06  1.35927e+03  0.00000e+00 -9.98234e+04 -2.73676e+03 -1.02560e+05  2.68981e-01  1.00000e+00  7.91101e+00  0.00000e+00  1.92183e+00 
 6.03395e-03  3.94857e-03  5.10973e-21  3.47944e+00  1.76796e-04  3.60081e+02  3.60055e+02  5.10930e+00  5.14246e+00  2.82660e-01 -9.05929e+00  1.97066e+02  1.21957e+06 -1.32059e+06  1.37217e+03  0.00000e+00 -9.96530e+04 -3.21751e+03 -1.02870e+05  2.82697e-01  1.00000e+00  9.64689e+00  0.00000e+00  2.18680e+00 
 6.19261e-03  4.18701e-03  0.00000e+00  3.47944e+00  1.74614e-04  3.60082e+02  3.60055e+02  5.08360e+00  5.11530e+00  2.96307e-01 -1.06629e+01  1.99529e+02  1.36932e+06 -1.47024e+06  1.38239e+03  0.00000e+00 -9.95458e+04 -3.63711e+03 -1.03183e+05  2.96366e-01  1.00000e+00  1.12911e+01  0.00000e+00  2.48729e+00 
 6.35626e-03  4.42546e-03  0.00000e+00  3.47944e+00  1.72597e-04  3.60082e+02  3.60055e+02  5.05494e+00  5.08523e+00  3.09776e-01 -1.21298e+01  2.01861e+02  1.52884e+06 -1.62939e+06  1.39108e+03  0.00000e+00 -9.91622e+04 -3.98940e+03 -1.03152e+05  3.09845e-01  1.00000e+00  1.27984e+01  0.00000e+00  2.82663e+00 
 6.52453e-03  4.66392e-03 -8.96437e-21  3.47944e+00  1.70743e-04  3.60083e+02  3.60055e+02  5.02320e+00  5.05216e+00  3.23011e-01 -1.34292e+01  2.04054e+02  1.69719e+06 -1.79729e+06  1.39995e+03  0.00000e+00 -9.87061e+04 -4.27251e+03 -1.02979e+05  3.23063e-01  1.00000e+00  1.41377e+01  0.00000e+00  3.20788e+00 
 6.69707e-03  4.90238e-03  1.72236e-20  3.47944e+00  1.69033e-04  3.60083e+02  3.60055e+02  4.98831e+00  5.01598e+00  3.35917e-01 -1.45392e+01  2.06118e+02  1.87376e+06 -1.97329e+06  1.40672e+03  0.00000e+00 -9.81222e+04 -4.48764e+03 -1.02610e+05  3.35942e-01  1.00000e+00  1.52869e+01  0.00000e+00  3.63476e+00 
 6.87356e-03  5.14086e-03  8.28595e-21  3.47944e+00  1.67449e-04  3.60083e+02  3.60055e+02  4.95017e+00  4.97660e+00  3.48445e-01 -1.54530e+01  2.08069e+02  2.05787e+06 -2.15707e+06  1.41113e+03  0.00000e+00 -9.77894e+04 -4.63941e+03 -1.02429e+05  3.48458e-01  1.00000e+00  1.62389e+01  0.00000e+00  4.11105e+00 
 7.05370e-03  5.37934e-03 -1.59677e-20  3.47944e+00  1.65956e-04  3.60083e+02  3.60055e+02  4.90873e+00  4.93397e+00  3.60583e-01 -1.61714e+01  2.09941e+02  2.24991e+06 -2.34899e+06  1.41341e+03  0.00000e+00 -9.76631e+04 -4.73424e+03 -1.02397e+05  3.60591e-01  1.00000e+00  1.69947e+01  0.00000e+00  4.64310e+00 
 7.23722e-03  5.61783e-03  0.00000e+00  3.47944e+00  1.64518e-04  3.60082e+02  3.60055e+02  4.86387e+00  4.88796e+00  3.72283e-01 -1.67068e+01  2.11777e+02  2.44974e+06 -2.54916e+06  1.41415e+03  0.00000e+00 -9.80036e+04 -4.78124e+03 -1.02785e+05  3.72289e-01  1.00000e+00  1.75665e+01  0.00000e+00  5.23576e+00 
 7.42387e-03  5.85632e-03  0.00000e+00  3.47944e+00  1.63087e-04  3.60082e+02  3.60056e+02  4.81553e+00  4.83851e+00  3.83520e-01 -1.70751e+01  2.13635e+02  2.65917e+06 -2.75906e+06  1.41295e+03  0.00000e+00 -9.84715e+04 -4.78954e+03 -1.03261e+05  3.83527e-01  1.00000e+00  1.79704e+01  0.00000e+00  5.89881e+00 
 7.61342e-03  6.09482e-03  0.00000e+00  3.47944e+00  1.61620e-04  3.60082e+02  3.60056e+02  4.76350e+00  4.78540e+00  3.94305e-01 -1.73057e+01  2.15576e+02  2.87977e+06 -2.98056e+06  1.41272e+03  0.00000e+00 -9.93779e+04 -4.77039e+03 -1.04148e+05  3.94313e-01  1.00000e+00  1.82363e+01  0.00000e+00  6.64226e+00 
 7.80566e-03  6.33332e-03  0.00000e+00  3.47944e+00  1.60065e-04  3.60081e+02  3.60056e+02  4.70757e+00  4.72839e+00  4.04722e-01 -1.74280e+01  2.17671e+02  3.11463e+06 -3.21753e+06  1.41107e+03  0.00000e+00 -1.01487e+05 -4.73331e+03 -1.06221e+05  4.04732e-01  1.00000e+00  1.83939e+01  0.00000e+00  7.48217e+00 
 8.00039e-03  6.57182e-03  0.00000e+00  3.47944e+00  1.58365e-04  3.60081e+02  3.60056e+02  4.64732e+00  4.66710e+00  4.14736e-01 -1.74811e+01  2.20009e+02  3.36799e+06 -3.47397e+06  1.40936e+03  0.00000e+00 -1.04570e+05 -4.69119e+03 -1.09261e+05  4.14748e-01  1.00000e+00  1.84828e+01  0.00000e+00  8.43749e+00 
 8.19744e-03  6.81033e-03  1.31016e-20  3.47944e+00  1.56451e-04  3.60080e+02  3.60056e+02  4.58232e+00  4.60104e+00  4.24419e-01 -1.75091e+01  2.22701e+02  3.64612e+06 -3.75688e+06  1.40791e+03  0.00000e+00 -1.09347e+05 -4.65656e+03 -1.14003e+05  4.24431e-01  1.00000e+00  1.85477e+01  0.00000e+00  9.53718e+00 
 8.39664e-03  7.04884e-03  0.00000e+00  3.47944e+00  1.54251e-04  3.60080e+02  3.60057e+02  4.51210e+00  4.52975e+00  4.33725e-01 -1.75777e+01  2.25879e+02  3.95768e+06 -4.07452e+06  1.40728e+03  0.00000e+00 -1.15431e+05 -4.64848e+03 -1.20080e+05  4.33739e-01  1.00000e+00  1.86554e+01  0.00000e+00  1.08182e+01 
 8.59784e-03  7.28736e-03  0.00000e+00  3.47944e+00  1.51679e-04  3.60079e+02  3.60057e+02  4.43526e+00  4.45181e+00  4.42766e-01 -1.77854e+01  2.29712e+02  4.31458e+06 -4.44043e+06  1.40816e+03  0.00000e+00 -1.24448e+05 -4.69282e+03 -1.29141e+05  4.42781e-01  1.00000e+00  1.89052e+01  0.00000e+00  1.23357e+01 
 8.80092e-03  7.52587e-03  0.00000e+00  3.47944e+00  1.48629e-04  3.60079e+02  3.60057e+02  4.35215e+00  4.36757e+00  4.51562e-01 -1.82884e+01  2.34426e+02  4.73553e+06 -4.87366e+06  1.41100e+03  0.00000e+00 -1.36721e+05 -4.83235e+03 -1.41553e+05  4.51579e-01  1.00000e+00  1.94550e+01  0.00000e+00  1.41740e+01 
 9.00573e-03  7.76439e-03 -1.17014e-20  3.47944e+00  1.44987e-04  3.60079e+02  3.60058e+02  4.25777e+00  4.27198e+00  4.60292e-01 -1.94058e+01  2.40317e+02  5.24493e+06 -5.40310e+06  1.41641e+03  0.00000e+00 -1.56753e+05 -5.15216e+03 -1.61905e+05  4.60313e-01  1.00000e+00  2.06256e+01  0.00000e+00  1.64526e+01 
 9.21216e-03  8.00291e-03  0.00000e+00  3.47944e+00  1.40563e-04  3.60079e+02  3.60058e+02  4.15717e+00  4.17014e+00  4.68992e-01 -2.16962e+01  2.47882e+02  5.89149e+06 -6.07812e+06  1.42612e+03  0.00000e+00 -1.85207e+05 -5.81085e+03 -1.91018e+05  4.69008e-01  1.00000e+00  2.29788e+01  0.00000e+00  1.93968e+01 
 9.42012e-03  8.24144e-03  0.00000e+00  3.47944e+00  1.35198e-04  3.60080e+02  3.60059e+02  4.03009e+00  4.04136e+00  4.77861e-01 -2.66105e+01  2.57721e+02  6.72939e+06 -6.96765e+06  1.44297e+03  0.00000e+00 -2.36826e+05 -7.21676e+03 -2.44043e+05  4.77876e-01  1.00000e+00  2.79681e+01  0.00000e+00  2.32766e+01 
 9.62949e-03  8.47996e-03  0.00000e+00  3.47944e+00  1.28468e-04  3.60083e+02  3.60059e+02  3.90058e+00  3.91050e+00  4.86823e-01 -3.73359e+01  2.71224e+02  7.91336e+06 -8.22942e+06  1.46685e+03  0.00000e+00 -3.14596e+05 -1.03394e+04 -3.24935e+05  4.86837e-01  1.00000e+00  3.87888e+01  0.00000e+00  2.88056e+01 
 9.84019e-03  8.71849e-03  0.00000e+00  3.47944e+00  1.20056e-04  3.60089e+02  3.60060e+02  3.71798e+00  3.72639e+00  4.96223e-01 -6.41091e+01  2.90234e+02  9.68331e+06 -1.01352e+07  1.49795e+03  0.00000e+00 -4.50376e+05 -1.83815e+04 -4.68757e+05  4.96235e-01  1.00000e+00  6.56859e+01  0.00000e+00  3.71803e+01 
 1.00521e-02  8.95702e-03  0.00000e+00  3.47944e+00  1.09037e-04  3.60104e+02  3.60060e+02  3.52644e+00  3.53344e+00  5.06150e-01 -1.43616e+02  3.19568e+02  1.28021e+07 -1.34502e+07  1.55121e+03  0.00000e+00 -6.46521e+05 -4.39120e+04 -6.90433e+05  5.06162e-01  1.00000e+00  1.45370e+02  0.00000e+00  5.23049e+01 
 1.02653e-02  9.19555e-03  0.00000e+00  3.47944e+00  9.51519e-05  3.60158e+02  3.60061e+02  3.19626e+00  3.20164e+00  5.17094e-01 -4.68317e+02  3.66206e+02  1.91338e+07 -1.99392e+07  1.59949e+03  0.00000e+00 -8.03799e+05 -1.59358e+05 -9.63157e+05  5.17104e-01  1.00000e+00  4.70323e+02  0.00000e+00  8.53491e+01 
 1.04795e-02  9.43408e-03  0.00000e+00  3.47944e+00  7.96820e-05  3.60455e+02  3.60062e+02  2.71743e+00  2.72007e+00  5.33003e-01 -6.16784e+03  4.37312e+02  3.67733e+07 -3.48873e+07  1.67556e+03  2.29474e+06  4.18243e+06 -4.27342e+06 -9.09875e+04  5.32993e-01  1.00000e+00  6.17018e+03  3.38423e+03  2.10780e+02 
