# Code_Saturne plot output (1D profile)
#
# Iteration output: 3810
# Time output:      2.30007e+01
#
#COLUMN_TITLES: Distance | X | Y | Z | diameter_Field2 | temp_Field1 | temp_Field2 | Velocity_Field1[Z] | Velocity_Field2[Z] | vol_f_Field2 | mass_trans_Field1 | Xd_Field2 | BK | COAL | COMP | NUCL | W1 | MT | SMBR | ALPBB | CONDNUM | GAMA | GAMANUC | epsilon_Field1
 4.56474e-03  1.39645e-04  0.00000e+00  3.47944e+00  1.00000e-05  3.58943e+02  3.60047e+02  4.18326e+00  4.18332e+00  1.09403e-05  1.19071e+00  3.48565e+03  0.00000e+00 -4.92317e+03  1.04447e+04  0.00000e+00  5.52157e+03  2.11331e+08  2.11336e+08  1.05766e-05  1.00000e+00 -1.19406e+00  0.00000e+00  2.85767e-01 
 4.57812e-03  3.76525e-04  4.25872e-21  3.47944e+00  1.00000e-05  3.58948e+02  3.60047e+02  4.18301e+00  4.18313e+00  6.57770e-05  7.95892e+00  3.48565e+03  0.00000e+00 -3.00541e+04  9.75698e+03  0.00000e+00 -2.02971e+04  2.32001e+08  2.31981e+08  6.43978e-05  1.00000e+00 -7.98146e+00  0.00000e+00  2.88039e-01 
 4.60371e-03  6.13858e-04  0.00000e+00  3.47944e+00  1.30504e-05  3.58957e+02  3.60047e+02  4.18213e+00  4.18239e+00  4.25290e-04  3.55553e+01  2.67091e+03 3.81153e-225 -1.27569e+05  9.44502e+03  0.00000e+00 -1.18124e+05  1.21138e+08  1.21020e+08  4.23303e-04  1.00000e+00 -3.56567e+01  0.00000e+00  2.92522e-01 
 4.64138e-03  8.51483e-04  0.00000e+00  3.47944e+00  1.97477e-05  3.58970e+02  3.60047e+02  4.18088e+00  4.18156e+00  1.58145e-03  7.07274e+01  1.76509e+03 6.56092e-106 -2.38251e+05  7.11374e+03  0.00000e+00 -2.31137e+05  4.26815e+07  4.24504e+07  1.57769e-03  1.00000e+00 -7.09310e+01  0.00000e+00  2.99303e-01 
 4.69084e-03  1.08931e-03  0.00000e+00  3.47944e+00  2.83030e-05  3.58986e+02  3.60047e+02  4.17928e+00  4.18080e+00  3.50277e-03  8.87114e+01  1.23155e+03  1.21584e-52 -2.90475e+05  5.23792e+03  0.00000e+00 -2.85237e+05  1.68366e+07  1.65513e+07  3.49845e-03  1.00000e+00 -8.89702e+01  0.00000e+00  3.08468e-01 
 4.75174e-03  1.32727e-03  1.05001e-20  3.47944e+00  3.81914e-05  3.59004e+02  3.60047e+02  4.17728e+00  4.18013e+00  5.67526e-03  8.80064e+01  9.12680e+02  1.26050e-27 -2.86875e+05  3.96513e+03  0.00000e+00 -2.82910e+05  7.63487e+06  7.35196e+06  5.67066e-03  1.00000e+00 -8.82675e+01  0.00000e+00  3.20107e-01 
 4.82366e-03  1.56534e-03  0.00000e+00  3.47944e+00  4.86274e-05  3.59024e+02  3.60047e+02  4.17479e+00  4.17931e+00  7.71830e-03  8.03180e+01  7.16808e+02  4.43503e-15 -2.62562e+05  3.13805e+03  0.00000e+00 -2.59424e+05  4.02257e+06  3.76315e+06  7.71366e-03  1.00000e+00 -8.05611e+01  0.00000e+00  3.34365e-01 
 4.90611e-03  1.80349e-03  8.81027e-21  3.47944e+00  5.89225e-05  3.59048e+02  3.60047e+02  4.17171e+00  4.17824e+00  9.68678e-03  7.21704e+01  5.91564e+02  2.77486e-08 -2.41467e+05  2.59139e+03  0.00000e+00 -2.38876e+05  2.37637e+06  2.13750e+06  9.68190e-03  1.00000e+00 -7.23941e+01  0.00000e+00  3.51484e-01 
 4.99859e-03  2.04170e-03  0.00000e+00  3.47944e+00  6.86133e-05  3.59075e+02  3.60047e+02  4.16798e+00  4.17662e+00  1.18844e-02  6.74470e+01  5.08013e+02  2.59581e-04 -2.32607e+05  2.22364e+03  0.00000e+00 -2.30383e+05  1.55441e+06  1.32403e+06  1.18790e-02  1.00000e+00 -6.76618e+01  0.00000e+00  3.71828e-01 
 5.10055e-03  2.27996e-03  7.58893e-21  3.47944e+00  7.76150e-05  3.59105e+02  3.60047e+02  4.16359e+00  4.17415e+00  1.45215e-02  6.62615e+01  4.49094e+02  8.53651e-02 -2.34844e+05  1.96713e+03  0.00000e+00 -2.32877e+05  1.10485e+06  8.71974e+05  1.45150e-02  1.00000e+00 -6.64792e+01  0.00000e+00  3.95873e-01 
 5.21143e-03  2.51826e-03  7.09702e-21  3.47944e+00  8.62034e-05  3.59138e+02  3.60047e+02  4.15850e+00  4.17091e+00  1.76416e-02  6.65310e+01  4.04352e+02  4.66351e+00 -2.43641e+05  1.77172e+03  0.00000e+00 -2.41865e+05  8.22223e+05  5.80358e+05  1.76339e-02  1.00000e+00 -6.67575e+01  0.00000e+00  4.24130e-01 
 5.33068e-03  2.75659e-03  1.33300e-20  3.47944e+00  9.45655e-05  3.59175e+02  3.60047e+02  4.15266e+00  4.16685e+00  2.13158e-02  6.76631e+01  3.68596e+02  8.61226e+01 -2.57199e+05  1.61513e+03  0.00000e+00 -2.55497e+05  6.30948e+05  3.75451e+05  2.13065e-02  1.00000e+00 -6.79031e+01  0.00000e+00  4.57229e-01 
 5.45775e-03  2.99495e-03  1.25651e-20  3.47944e+00  1.02730e-04  3.59215e+02  3.60047e+02  4.14598e+00  4.16189e+00  2.56205e-02  6.93930e+01  3.39304e+02  7.68613e+02 -2.75157e+05  1.48628e+03  0.00000e+00 -2.72902e+05  4.95650e+05  2.22749e+05  2.56090e-02  1.00000e+00 -6.96507e+01  0.00000e+00  4.96195e-01 
 5.59212e-03  3.23333e-03  0.00000e+00  3.47944e+00  1.10590e-04  3.59258e+02  3.60047e+02  4.13841e+00  4.15590e+00  3.06520e-02  7.16582e+01  3.15187e+02  4.05716e+03 -2.98176e+05  1.37984e+03  0.00000e+00 -2.92739e+05  3.97497e+05  1.04758e+05  3.06368e-02  1.00000e+00 -7.19386e+01  0.00000e+00  5.42226e-01 
 5.73326e-03  3.47172e-03  0.00000e+00  3.47944e+00  1.17935e-04  3.59303e+02  3.60047e+02  4.12984e+00  4.14874e+00  3.65087e-02  7.44784e+01  2.95557e+02  1.44291e+04 -3.27576e+05  1.29291e+03  0.00000e+00 -3.11854e+05  3.25367e+05  1.35137e+04  3.64872e-02  1.00000e+00 -7.47872e+01  0.00000e+00  5.96715e-01 
 5.88069e-03  3.71014e-03 -5.35987e-21  3.47944e+00  1.24501e-04  3.59351e+02  3.60047e+02  4.12016e+00  4.14026e+00  4.32951e-02  7.79277e+01  2.79971e+02  3.80654e+04 -3.65369e+05  1.22360e+03  0.00000e+00 -3.26080e+05  2.72018e+05 -5.40626e+04  4.32683e-02  1.00000e+00 -7.82725e+01  0.00000e+00  6.61323e-01 
 6.03395e-03  3.94857e-03  5.10973e-21  3.47944e+00  1.30061e-04  3.59401e+02  3.60047e+02  4.10922e+00  4.13026e+00  5.11261e-02  8.20620e+01  2.68002e+02  8.04089e+04 -4.14066e+05  1.16988e+03  0.00000e+00 -3.32487e+05  2.32280e+05 -1.00207e+05  5.10942e-02  1.00000e+00 -8.24522e+01  0.00000e+00  7.38141e-01 
 6.19261e-03  4.18701e-03  0.00000e+00  3.47944e+00  1.34512e-04  3.59451e+02  3.60047e+02  4.09688e+00  4.11858e+00  6.01150e-02  8.68350e+01  2.59133e+02  1.44504e+05 -4.76340e+05  1.12949e+03  0.00000e+00 -3.30707e+05  2.02205e+05 -1.28502e+05  6.00755e-02  1.00000e+00 -8.72822e+01  0.00000e+00  8.29609e-01 
 6.35626e-03  4.42546e-03  0.00000e+00  3.47944e+00  1.37898e-04  3.59503e+02  3.60047e+02  4.08294e+00  4.10507e+00  7.03570e-02  9.11510e+01  2.52770e+02  2.31627e+05 -5.54834e+05  1.09970e+03  0.00000e+00 -3.22107e+05  1.76995e+05 -1.45112e+05  7.03073e-02  1.00000e+00 -9.16633e+01  0.00000e+00  9.38584e-01 
 6.52453e-03  4.66392e-03 -8.96437e-21  3.47944e+00  1.40347e-04  3.59554e+02  3.60047e+02  4.06718e+00  4.08955e+00  8.19315e-02  9.50784e+01  2.48361e+02  3.42484e+05 -6.52320e+05  1.07799e+03  0.00000e+00 -3.08758e+05  1.55867e+05 -1.52890e+05  8.18704e-02  1.00000e+00 -9.56669e+01  0.00000e+00  1.06847e+00 
 6.69707e-03  4.90238e-03  1.72236e-20  3.47944e+00  1.42027e-04  3.59605e+02  3.60047e+02  4.04934e+00  4.07170e+00  9.48750e-02  9.85069e+01  2.45422e+02  4.77939e+05 -7.71459e+05  1.06216e+03  0.00000e+00 -2.92457e+05  1.37905e+05 -1.54552e+05  9.48009e-02  1.00000e+00 -9.91843e+01  0.00000e+00  1.22333e+00 
 6.87356e-03  5.14086e-03  8.28595e-21  3.47944e+00  1.43132e-04  3.59655e+02  3.60047e+02  4.02911e+00  4.05129e+00  1.09199e-01  1.01038e+02  2.43528e+02  6.39191e+05 -9.14704e+05  1.05024e+03  0.00000e+00 -2.74463e+05  1.22053e+05 -1.52410e+05  1.09109e-01  1.00000e+00 -1.01818e+02  0.00000e+00  1.40786e+00 
 7.05370e-03  5.37934e-03 -1.59677e-20  3.47944e+00  1.43841e-04  3.59702e+02  3.60047e+02  4.00613e+00  4.02798e+00  1.24854e-01  1.02282e+02  2.42329e+02  8.27476e+05 -1.08401e+06  1.04068e+03  0.00000e+00 -2.55497e+05  1.07644e+05 -1.47853e+05  1.24745e-01  1.00000e+00 -1.03175e+02  0.00000e+00  1.62768e+00 
 7.23722e-03  5.61783e-03  0.00000e+00  3.47944e+00  1.44308e-04  3.59748e+02  3.60047e+02  3.98001e+00  4.00143e+00  1.41733e-01  1.01902e+02  2.41545e+02  1.04328e+06 -1.28057e+06  1.03210e+03  0.00000e+00 -2.36261e+05  9.42864e+04 -1.41975e+05  1.41607e-01  1.00000e+00 -1.02921e+02  0.00000e+00  1.88906e+00 
 7.42387e-03  5.85632e-03  0.00000e+00  3.47944e+00  1.44657e-04  3.59791e+02  3.60047e+02  3.95030e+00  3.97123e+00  1.59660e-01  9.96671e+01  2.40962e+02  1.28624e+06 -1.50453e+06  1.02343e+03  0.00000e+00 -2.17273e+05  8.17938e+04 -1.35479e+05  1.59519e-01  1.00000e+00 -1.00822e+02  0.00000e+00  2.19939e+00 
 7.61342e-03  6.09482e-03  0.00000e+00  3.47944e+00  1.44984e-04  3.59830e+02  3.60047e+02  3.91653e+00  3.93692e+00  1.78401e-01  9.54832e+01  2.40420e+02  1.55458e+06 -1.75485e+06  1.01390e+03  0.00000e+00 -1.99258e+05  7.01037e+04 -1.29155e+05  1.78254e-01  1.00000e+00 -9.67793e+01  0.00000e+00  2.56676e+00 
 7.80566e-03  6.33332e-03  0.00000e+00  3.47944e+00  1.45349e-04  3.59866e+02  3.60047e+02  3.87824e+00  3.89806e+00  1.97692e-01  8.94280e+01  2.39817e+02  1.84567e+06 -2.02968e+06  1.00296e+03  0.00000e+00 -1.83001e+05  5.92423e+04 -1.23758e+05  1.97557e-01  1.00000e+00 -9.08696e+01  0.00000e+00  3.00079e+00 
 8.00039e-03  6.57182e-03  0.00000e+00  3.47944e+00  1.45774e-04  3.59899e+02  3.60048e+02  3.83494e+00  3.85416e+00  2.17200e-01  8.17122e+01  2.39118e+02  2.15626e+06 -2.32631e+06  9.90392e+02  0.00000e+00 -1.69065e+05  4.92707e+04 -1.19794e+05  2.17116e-01  1.00000e+00 -8.32997e+01  0.00000e+00  3.51239e+00 
 8.19744e-03  6.81033e-03  1.31016e-20  3.47944e+00  1.46241e-04  3.59928e+02  3.60048e+02  3.78620e+00  3.80481e+00  2.36700e-01  7.26855e+01  2.38354e+02  2.48367e+06 -2.64318e+06  9.76077e+02  0.00000e+00 -1.58541e+05  4.02496e+04 -1.18291e+05  2.36679e-01  1.00000e+00 -7.44172e+01  0.00000e+00  4.11533e+00 
 8.39664e-03  7.04884e-03  0.00000e+00  3.47944e+00  1.46672e-04  3.59954e+02  3.60048e+02  3.73153e+00  3.74950e+00  2.55877e-01  6.27278e+01  2.37655e+02  2.82753e+06 -2.97961e+06  9.60222e+02  0.00000e+00 -1.51122e+05  3.22225e+04 -1.18899e+05  2.55888e-01  1.00000e+00 -6.46007e+01  0.00000e+00  4.82759e+00 
 8.59784e-03  7.28736e-03  0.00000e+00  3.47944e+00  1.46963e-04  3.59977e+02  3.60048e+02  3.67052e+00  3.68782e+00  2.74693e-01  5.22458e+01  2.37185e+02  3.19039e+06 -3.34062e+06  9.43316e+02  0.00000e+00 -1.49286e+05  2.51619e+04 -1.24124e+05  2.74679e-01  1.00000e+00 -5.42580e+01  0.00000e+00  5.67473e+00 
 8.80092e-03  7.52587e-03  0.00000e+00  3.47944e+00  1.46930e-04  3.59997e+02  3.60048e+02  3.60227e+00  3.61887e+00  2.92890e-01  4.15179e+01  2.37240e+02  3.58187e+06 -3.73586e+06  9.26522e+02  0.00000e+00 -1.53066e+05  1.90016e+04 -1.34065e+05  2.92813e-01  1.00000e+00 -4.36698e+01  0.00000e+00  6.69584e+00 
 9.00573e-03  7.76439e-03 -1.17014e-20  3.47944e+00  1.46371e-04  3.60014e+02  3.60048e+02  3.52612e+00  3.54194e+00  3.10501e-01  3.06753e+01  2.38146e+02  4.01827e+06 -4.18554e+06  9.10661e+02  0.00000e+00 -1.66358e+05  1.35870e+04 -1.52771e+05  3.10372e-01  1.00000e+00 -3.29734e+01  0.00000e+00  7.95185e+00 
 9.21216e-03  8.00291e-03  0.00000e+00  3.47944e+00  1.44971e-04  3.60030e+02  3.60049e+02  3.43997e+00  3.45495e+00  3.27315e-01  1.95812e+01  2.40449e+02  4.53330e+06 -4.72280e+06  8.97160e+02  0.00000e+00 -1.88605e+05  8.69998e+03 -1.79905e+05  3.27131e-01  1.00000e+00 -2.20404e+01  0.00000e+00  9.54741e+00 
 9.42012e-03  8.24144e-03  0.00000e+00  3.47944e+00  1.42442e-04  3.60045e+02  3.60049e+02  3.34119e+00  3.35519e+00  3.43850e-01  7.69093e+00  2.44718e+02  5.17446e+06 -5.40896e+06  8.86740e+02  0.00000e+00 -2.33607e+05  3.95435e+03 -2.29652e+05  3.43650e-01  1.00000e+00 -1.03402e+01  0.00000e+00  1.16570e+01 
 9.62949e-03  8.47996e-03  0.00000e+00  3.47944e+00  1.38235e-04  3.60060e+02  3.60049e+02  3.22730e+00  3.24019e+00  3.59769e-01 -1.30214e+01  2.52168e+02  6.05682e+06 -6.35550e+06  8.80356e+02  0.00000e+00 -2.97794e+05 -2.80407e+03 -3.00598e+05  3.59564e-01  1.00000e+00  7.44486e+00  0.00000e+00  1.46553e+01 
 9.84019e-03  8.71849e-03  0.00000e+00  3.47944e+00  1.31834e-04  3.60077e+02  3.60050e+02  3.08301e+00  3.09441e+00  3.75527e-01 -5.56559e+01  2.64413e+02  7.35200e+06 -7.76391e+06  8.81544e+02  0.00000e+00 -4.11032e+05 -1.87424e+04 -4.29775e+05  3.75333e-01  1.00000e+00  4.95449e+01  0.00000e+00  1.91797e+01 
 1.00521e-02  8.95702e-03  0.00000e+00  3.47944e+00  1.22165e-04  3.60105e+02  3.60050e+02  2.90897e+00  2.91897e+00  3.91038e-01 -1.44113e+02  2.85344e+02  9.60402e+06 -1.01777e+07  8.91854e+02  0.00000e+00 -5.72761e+05 -5.38064e+04 -6.26568e+05  3.90785e-01  1.00000e+00  1.37225e+02  0.00000e+00  2.72101e+01 
 1.02653e-02  9.19555e-03  0.00000e+00  3.47944e+00  1.08595e-04  3.60175e+02  3.60051e+02  2.65386e+00  2.66239e+00  4.07228e-01 -4.29791e+02  3.21005e+02  1.42800e+07 -1.49654e+07  9.04657e+02  0.00000e+00 -6.84492e+05 -1.78670e+05 -8.63163e+05  4.06896e-01  1.00000e+00  4.21719e+02  0.00000e+00  4.51235e+01 
 1.04795e-02  9.43408e-03  0.00000e+00  3.47944e+00  9.21037e-05  3.60490e+02  3.60052e+02  2.22911e+00  2.23370e+00  4.27715e-01 -5.26353e+03  3.78485e+02  2.76664e+07 -2.64195e+07  9.33911e+02  2.97917e+06  4.22703e+06 -4.36511e+06 -1.38076e+05  4.27328e-01  1.00000e+00  5.25370e+03  3.16091e+03  1.13115e+02 
