# Code_Saturne plot output (1D profile)
#
# Iteration output: 3560
# Time output:      2.30015e+01
#
#COLUMN_TITLES: Distance | X | Y | Z | diameter_Field2 | temp_Field1 | temp_Field2 | Velocity_Field1[Z] | Velocity_Field2[Z] | vol_f_Field2 | mass_trans_Field1 | Xd_Field2 | BK | COAL | COMP | NUCL | W1 | MT | SMBR | ALPBB | CONDNUM | GAMA | GAMANUC | epsilon_Field1
 4.56474e-03  1.39645e-04  0.00000e+00  3.47944e+00  9.14257e-05  3.59878e+02  3.60053e+02  4.93755e+00  4.95371e+00  9.52628e-02  6.49703e+01  3.81136e+02  3.48740e+01 -1.27596e+06  2.49169e+03  0.00000e+00 -1.27344e+06  1.14976e+05 -1.15846e+06  9.52416e-02  1.00000e+00 -6.51080e+01  0.00000e+00  4.55157e-01 
 4.57812e-03  3.76525e-04  4.25872e-21  3.47944e+00  1.23995e-04  3.59879e+02  3.60053e+02  4.93704e+00  4.96102e+00  9.63512e-02  4.34069e+01  2.81023e+02  5.76635e+03 -7.68234e+05  1.83905e+03  0.00000e+00 -7.60629e+05  5.59988e+04 -7.04630e+05  9.63315e-02  1.00000e+00 -4.35003e+01  0.00000e+00  4.61647e-01 
 4.60371e-03  6.13858e-04  0.00000e+00  3.47944e+00  1.50129e-04  3.59880e+02  3.60053e+02  4.93568e+00  4.96598e+00  9.84237e-02  3.41291e+01  2.32105e+02  3.85881e+04 -5.69373e+05  1.52043e+03  0.00000e+00 -5.29264e+05  3.55996e+04 -4.93665e+05  9.84047e-02  1.00000e+00 -3.42035e+01  0.00000e+00  4.74278e-01 
 4.64138e-03  8.51483e-04  0.00000e+00  3.47944e+00  1.69089e-04  3.59883e+02  3.60053e+02  4.93370e+00  4.96857e+00  1.01439e-01  2.97050e+01  2.06078e+02  9.12116e+04 -4.83854e+05  1.35073e+03  0.00000e+00 -3.91292e+05  2.66932e+04 -3.64598e+05  1.01421e-01  1.00000e+00 -2.97709e+01  0.00000e+00  4.93288e-01 
 4.69084e-03  1.08931e-03  0.00000e+00  3.47944e+00  1.82054e-04  3.59887e+02  3.60053e+02  4.93104e+00  4.96899e+00  1.05442e-01  2.75288e+01  1.91402e+02  1.45784e+05 -4.49727e+05  1.25475e+03  0.00000e+00 -3.02688e+05  2.21048e+04 -2.80583e+05  1.05424e-01  1.00000e+00 -2.75913e+01  0.00000e+00  5.19048e-01 
 4.75174e-03  1.32727e-03  1.05001e-20  3.47944e+00  1.90406e-04  3.59893e+02  3.60053e+02  4.92765e+00  4.96744e+00  1.10453e-01  2.65394e+01  1.83006e+02  1.97023e+05 -4.44347e+05  1.19960e+03  0.00000e+00 -2.46124e+05  1.94522e+04 -2.26672e+05  1.10437e-01  1.00000e+00 -2.66016e+01  0.00000e+00  5.52153e-01 
 4.82366e-03  1.56534e-03  0.00000e+00  3.47944e+00  1.95490e-04  3.59899e+02  3.60053e+02  4.92337e+00  4.96409e+00  1.16493e-01  2.62064e+01  1.78247e+02  2.46629e+05 -4.57797e+05  1.16814e+03  0.00000e+00 -2.09999e+05  1.77402e+04 -1.92259e+05  1.16476e-01  1.00000e+00 -2.62702e+01  0.00000e+00  5.93390e-01 
 4.90611e-03  1.80349e-03  8.81027e-21  3.47944e+00  1.98378e-04  3.59907e+02  3.60052e+02  4.91899e+00  4.96032e+00  1.23582e-01  2.62383e+01  1.75652e+02  2.97796e+05 -4.85503e+05  1.14970e+03  0.00000e+00 -1.86557e+05  1.65009e+04 -1.70056e+05  1.23566e-01  1.00000e+00 -2.63051e+01  0.00000e+00  6.43857e-01 
 4.99859e-03  2.04170e-03  0.00000e+00  3.47944e+00  1.99840e-04  3.59916e+02  3.60052e+02  4.91296e+00  4.95417e+00  1.31726e-01  2.64242e+01  1.74367e+02  3.53278e+05 -5.25311e+05  1.14028e+03  0.00000e+00 -1.70893e+05  1.54786e+04 -1.55414e+05  1.31710e-01  1.00000e+00 -2.64953e+01  0.00000e+00  7.04783e-01 
 5.10055e-03  2.27996e-03  7.58893e-21  3.47944e+00  2.00399e-04  3.59925e+02  3.60052e+02  4.90594e+00  4.94679e+00  1.40912e-01  2.66389e+01  1.73881e+02  4.15113e+05 -5.76299e+05  1.13575e+03  0.00000e+00 -1.60050e+05  1.45489e+04 -1.45501e+05  1.40897e-01  1.00000e+00 -2.67152e+01  0.00000e+00  7.77548e-01 
 5.21143e-03  2.51826e-03  7.09702e-21  3.47944e+00  2.00403e-04  3.59935e+02  3.60052e+02  4.89770e+00  4.93801e+00  1.51104e-01  2.67760e+01  1.73877e+02  4.84886e+05 -6.38146e+05  1.13410e+03  0.00000e+00 -1.52126e+05  1.36401e+04 -1.38485e+05  1.51089e-01  1.00000e+00 -2.68585e+01  0.00000e+00  8.63887e-01 
 5.33068e-03  2.75659e-03  1.33300e-20  3.47944e+00  2.00090e-04  3.59946e+02  3.60052e+02  4.88798e+00  4.92762e+00  1.62244e-01  2.67506e+01  1.74149e+02  5.63656e+05 -7.10766e+05  1.13406e+03  0.00000e+00 -1.45976e+05  1.27146e+04 -1.33261e+05  1.62230e-01  1.00000e+00 -2.68401e+01  0.00000e+00  9.65728e-01 
 5.45775e-03  2.99495e-03  1.25651e-20  3.47944e+00  1.99628e-04  3.59957e+02  3.60052e+02  4.87689e+00  4.91592e+00  1.74251e-01  2.64974e+01  1.74552e+02  6.52110e+05 -7.94097e+05  1.13426e+03  0.00000e+00 -1.40854e+05  1.17573e+04 -1.29096e+05  1.74238e-01  1.00000e+00 -2.65946e+01  0.00000e+00  1.08531e+00 
 5.59212e-03  3.23333e-03  0.00000e+00  3.47944e+00  1.99137e-04  3.59968e+02  3.60052e+02  4.86399e+00  4.90227e+00  1.87021e-01  2.59602e+01  1.74983e+02  7.50480e+05 -8.87919e+05  1.13438e+03  0.00000e+00 -1.36304e+05  1.07629e+04 -1.25541e+05  1.87009e-01  1.00000e+00 -2.60655e+01  0.00000e+00  1.22510e+00 
 5.73326e-03  3.47172e-03  0.00000e+00  3.47944e+00  1.98709e-04  3.59979e+02  3.60052e+02  4.84910e+00  4.88660e+00  2.00423e-01  2.51059e+01  1.75360e+02  8.58434e+05 -9.91682e+05  1.13374e+03  0.00000e+00 -1.32114e+05  9.73827e+03 -1.22376e+05  2.00414e-01  1.00000e+00 -2.52199e+01  0.00000e+00  1.38768e+00 
 5.88069e-03  3.71014e-03 -5.35987e-21  3.47944e+00  1.98407e-04  3.59989e+02  3.60052e+02  4.83186e+00  4.86855e+00  2.14304e-01  2.39207e+01  1.75627e+02  9.75228e+05 -1.10448e+06  1.13195e+03  0.00000e+00 -1.28120e+05  8.69581e+03 -1.19425e+05  2.14297e-01  1.00000e+00 -2.40436e+01  0.00000e+00  1.57578e+00 
 6.03395e-03  3.94857e-03  5.10973e-21  3.47944e+00  1.98278e-04  3.59999e+02  3.60052e+02  4.81209e+00  4.84799e+00  2.28512e-01  2.24133e+01  1.75741e+02  1.09971e+06 -1.22515e+06  1.12867e+03  0.00000e+00 -1.24308e+05  7.65184e+03 -1.16656e+05  2.28507e-01  1.00000e+00 -2.25452e+01  0.00000e+00  1.79218e+00 
 6.19261e-03  4.18701e-03  0.00000e+00  3.47944e+00  1.98346e-04  3.60009e+02  3.60052e+02  4.78962e+00  4.82472e+00  2.42875e-01  2.06119e+01  1.75681e+02  1.23048e+06 -1.35220e+06  1.12369e+03  0.00000e+00 -1.20592e+05  6.62468e+03 -1.13967e+05  2.42872e-01  1.00000e+00 -2.07528e+01  0.00000e+00  2.03978e+00 
 6.35626e-03  4.42546e-03  0.00000e+00  3.47944e+00  1.98618e-04  3.60018e+02  3.60052e+02  4.76423e+00  4.79857e+00  2.57244e-01  1.85635e+01  1.75441e+02  1.36592e+06 -1.48408e+06  1.11692e+03  0.00000e+00 -1.17044e+05  5.63220e+03 -1.11412e+05  2.57244e-01  1.00000e+00 -1.87133e+01  0.00000e+00  2.32150e+00 
 6.52453e-03  4.66392e-03 -8.96437e-21  3.47944e+00  1.99079e-04  3.60026e+02  3.60052e+02  4.73579e+00  4.76936e+00  2.71465e-01  1.63272e+01  1.75035e+02  1.50452e+06 -1.61926e+06  1.10846e+03  0.00000e+00 -1.13633e+05  4.69093e+03 -1.08942e+05  2.71466e-01  1.00000e+00 -1.64856e+01  0.00000e+00  2.64050e+00 
 6.69707e-03  4.90238e-03  1.72236e-20  3.47944e+00  1.99701e-04  3.60034e+02  3.60052e+02  4.70416e+00  4.73699e+00  2.85414e-01  1.39679e+01  1.74491e+02  1.64477e+06 -1.75627e+06  1.09847e+03  0.00000e+00 -1.10395e+05  3.81350e+03 -1.06582e+05  2.85409e-01  1.00000e+00 -1.41344e+01  0.00000e+00  2.99969e+00 
 6.87356e-03  5.14086e-03  8.28595e-21  3.47944e+00  2.00427e-04  3.60041e+02  3.60053e+02  4.66925e+00  4.70136e+00  2.98919e-01  1.15528e+01  1.73859e+02  1.78620e+06 -1.89418e+06  1.08713e+03  0.00000e+00 -1.06897e+05  3.01004e+03 -1.03887e+05  2.98916e-01  1.00000e+00 -1.17270e+01  0.00000e+00  3.40307e+00 
 7.05370e-03  5.37934e-03 -1.59677e-20  3.47944e+00  2.01207e-04  3.60047e+02  3.60053e+02  4.63101e+00  4.66242e+00  3.12001e-01  9.14682e+00  1.73185e+02  1.92788e+06 -2.03297e+06  1.07483e+03  0.00000e+00 -1.04013e+05  2.28510e+03 -1.01728e+05  3.11993e-01  1.00000e+00 -9.32831e+00  0.00000e+00  3.85419e+00 
 7.23722e-03  5.61783e-03  0.00000e+00  3.47944e+00  2.01957e-04  3.60053e+02  3.60053e+02  4.58938e+00  4.62008e+00  3.24557e-01  6.80305e+00  1.72543e+02  2.07070e+06 -2.17318e+06  1.06193e+03  0.00000e+00 -1.01420e+05  1.64028e+03 -9.97798e+04  3.24552e-01  1.00000e+00 -6.99150e+00  0.00000e+00  4.35950e+00 
 7.42387e-03  5.85632e-03  0.00000e+00  3.47944e+00  2.02602e-04  3.60058e+02  3.60053e+02  4.54425e+00  4.57425e+00  3.36606e-01  4.56498e+00  1.71994e+02  2.21528e+06 -2.31600e+06  1.04891e+03  0.00000e+00 -9.96765e+04  1.07338e+03 -9.86031e+04  3.36598e-01  1.00000e+00 -4.76015e+00  0.00000e+00  4.92479e+00 
 7.61342e-03  6.09482e-03  0.00000e+00  3.47944e+00  2.03035e-04  3.60062e+02  3.60053e+02  4.49551e+00  4.52478e+00  3.48083e-01  2.46558e+00  1.71628e+02  2.36441e+06 -2.46379e+06  1.03609e+03  0.00000e+00 -9.83477e+04  5.80404e+02 -9.77673e+04  3.48074e-01  1.00000e+00 -2.66736e+00  0.00000e+00  5.56101e+00 
 7.80566e-03  6.33332e-03  0.00000e+00  3.47944e+00  2.03180e-04  3.60066e+02  3.60053e+02  4.44291e+00  4.47142e+00  3.59058e-01  5.28435e-01  1.71507e+02  2.52008e+06 -2.61940e+06  1.02394e+03  0.00000e+00 -9.82906e+04  1.55328e+02 -9.81353e+04  3.59047e-01  1.00000e+00 -7.36865e-01  0.00000e+00  6.27905e+00 
 8.00039e-03  6.57182e-03  0.00000e+00  3.47944e+00  2.02910e-04  3.60069e+02  3.60053e+02  4.38625e+00  4.41396e+00  3.69496e-01 -2.70199e+00  1.71735e+02  2.68760e+06 -2.78754e+06  1.01278e+03  0.00000e+00 -9.89321e+04 -4.67368e+02 -9.93995e+04  3.69482e-01  1.00000e+00  2.27857e+00  0.00000e+00  7.09922e+00 
 8.19744e-03  6.81033e-03  1.31016e-20  3.47944e+00  2.02157e-04  3.60071e+02  3.60054e+02  4.32485e+00  4.35170e+00  3.79507e-01 -6.18968e+00  1.72376e+02  2.87063e+06 -2.97316e+06  1.00294e+03  0.00000e+00 -1.01528e+05 -1.15333e+03 -1.02681e+05  3.79491e-01  1.00000e+00  5.75371e+00  0.00000e+00  8.04173e+00 
 8.39664e-03  7.04884e-03  0.00000e+00  3.47944e+00  2.00754e-04  3.60074e+02  3.60054e+02  4.25868e+00  4.28457e+00  3.89061e-01 -9.48538e+00  1.73581e+02  3.07882e+06 -3.18534e+06  9.94862e+02  0.00000e+00 -1.05516e+05 -1.77909e+03 -1.07295e+05  3.89044e-01  1.00000e+00  9.03573e+00  0.00000e+00  9.14671e+00 
 8.59784e-03  7.28736e-03  0.00000e+00  3.47944e+00  1.98629e-04  3.60076e+02  3.60054e+02  4.18574e+00  4.21058e+00  3.98297e-01 -1.27986e+01  1.75439e+02  3.31897e+06 -3.43298e+06  9.88846e+02  0.00000e+00 -1.13022e+05 -2.39753e+03 -1.15419e+05  3.98279e-01  1.00000e+00  1.23337e+01  0.00000e+00  1.04534e+01 
 8.80092e-03  7.52587e-03  0.00000e+00  3.47944e+00  1.95563e-04  3.60078e+02  3.60054e+02  4.10727e+00  4.13092e+00  4.07210e-01 -1.64322e+01  1.78191e+02  3.60946e+06 -3.73434e+06  9.85587e+02  0.00000e+00 -1.23886e+05 -3.08013e+03 -1.26966e+05  4.07192e-01  1.00000e+00  1.59496e+01  0.00000e+00  1.20478e+01 
 9.00573e-03  7.76439e-03 -1.17014e-20  3.47944e+00  1.91468e-04  3.60080e+02  3.60055e+02  4.01711e+00  4.03947e+00  4.15943e-01 -2.09136e+01  1.82004e+02  3.96587e+06 -4.10842e+06  9.84974e+02  0.00000e+00 -1.41565e+05 -3.94137e+03 -1.45507e+05  4.15925e-01  1.00000e+00  2.04103e+01  0.00000e+00  1.40201e+01 
 9.21216e-03  8.00291e-03  0.00000e+00  3.47944e+00  1.86003e-04  3.60083e+02  3.60055e+02  3.92184e+00  3.94276e+00  4.24508e-01 -2.71634e+01  1.87352e+02  4.43171e+06 -4.59882e+06  9.88357e+02  0.00000e+00 -1.66121e+05 -5.18766e+03 -1.71308e+05  4.24493e-01  1.00000e+00  2.66348e+01  0.00000e+00  1.65925e+01 
 9.42012e-03  8.24144e-03  0.00000e+00  3.47944e+00  1.79062e-04  3.60087e+02  3.60056e+02  3.80050e+00  3.81947e+00  4.33108e-01 -3.71209e+01  1.94617e+02  5.04356e+06 -5.25397e+06  9.97005e+02  0.00000e+00 -2.09417e+05 -7.25026e+03 -2.16667e+05  4.33095e-01  1.00000e+00  3.65613e+01  0.00000e+00  1.99731e+01 
 9.62949e-03  8.47996e-03  0.00000e+00  3.47944e+00  1.69985e-04  3.60094e+02  3.60056e+02  3.67741e+00  3.69463e+00  4.41684e-01 -5.51009e+01  2.05011e+02  5.93443e+06 -6.20736e+06  1.01295e+03  0.00000e+00 -2.71917e+05 -1.11639e+04 -2.83081e+05  4.41675e-01  1.00000e+00  5.45008e+01  0.00000e+00  2.48718e+01 
 9.84019e-03  8.71849e-03  0.00000e+00  3.47944e+00  1.58468e-04  3.60107e+02  3.60057e+02  3.50030e+00  3.51554e+00  4.50401e-01 -9.28262e+01  2.19913e+02  7.27933e+06 -7.66114e+06  1.03497e+03  0.00000e+00 -3.80767e+05 -1.98609e+04 -4.00628e+05  4.50399e-01  1.00000e+00  9.21731e+01  0.00000e+00  3.22595e+01 
 1.00521e-02  8.95702e-03  0.00000e+00  3.47944e+00  1.43222e-04  3.60136e+02  3.60057e+02  3.31316e+00  3.32670e+00  4.59385e-01 -1.89483e+02  2.43324e+02  9.69900e+06 -1.02336e+07  1.07486e+03  0.00000e+00 -5.33497e+05 -4.41192e+04 -5.77616e+05  4.59391e-01  1.00000e+00  1.88753e+02  0.00000e+00  4.58076e+01 
 1.02653e-02  9.19555e-03  0.00000e+00  3.47944e+00  1.24077e-04  3.60217e+02  3.60058e+02  2.99145e+00  3.00275e+00  4.69149e-01 -5.22198e+02  2.80874e+02  1.46307e+07 -1.52950e+07  1.11224e+03  0.00000e+00 -6.63127e+05 -1.37723e+05 -8.00849e+05  4.69155e-01  1.00000e+00  5.21359e+02  0.00000e+00  7.55352e+01 
 1.04795e-02  9.43408e-03  0.00000e+00  3.47944e+00  1.02379e-04  3.60578e+02  3.60059e+02  2.52506e+00  2.53175e+00  4.82091e-01 -5.82351e+03  3.40408e+02  2.84379e+07 -2.68012e+07  1.17553e+03  1.66693e+06  3.30480e+06 -3.40227e+06 -9.74638e+04  4.82107e-01  1.00000e+00  5.82252e+03  3.37424e+03  1.89145e+02 
