# Code_Saturne plot output (1D profile)
#
# Iteration output: 2433
# Time output:      2.30029e+01
#
#COLUMN_TITLES: Distance | X | Y | Z | diameter_Field2 | temp_Field1 | temp_Field2 | Velocity_Field1[Z] | Velocity_Field2[Z] | vol_f_Field2 | mass_trans_Field1 | Xd_Field2 | BK | COAL | COMP | NUCL | W1 | MT | SMBR | ALPBB | CONDNUM | GAMA | GAMANUC | epsilon_Field1
 4.56474e-03  1.39645e-04  0.00000e+00  3.47944e+00  1.13707e-04  3.59803e+02  3.60054e+02  4.82133e+00  4.84246e+00  1.06378e-01  7.98563e+01  3.06445e+02  4.15054e+03 -8.09351e+05  2.01669e+03  0.00000e+00 -8.03184e+05  7.64684e+04 -7.26715e+05  1.06384e-01  1.00000e+00 -7.98389e+01  0.00000e+00  6.55634e-01 
 4.57812e-03  3.76525e-04  4.25872e-21  3.47944e+00  1.43224e-04  3.59803e+02  3.60054e+02  4.82044e+00  4.84862e+00  1.07318e-01  5.89982e+01  2.43290e+02  2.68265e+04 -5.50783e+05  1.60265e+03  0.00000e+00 -5.22353e+05  4.44597e+04 -4.77894e+05  1.07324e-01  1.00000e+00 -5.89850e+01  0.00000e+00  6.63901e-01 
 4.60371e-03  6.13858e-04  0.00000e+00  3.47944e+00  1.66123e-04  3.59804e+02  3.60054e+02  4.81857e+00  4.85220e+00  1.09133e-01  4.90881e+01  2.09755e+02  5.75396e+04 -4.36769e+05  1.38286e+03  0.00000e+00 -3.77847e+05  3.13624e+04 -3.46484e+05  1.09139e-01  1.00000e+00 -4.90770e+01  0.00000e+00  6.80010e-01 
 4.64138e-03  8.51483e-04  0.00000e+00  3.47944e+00  1.83235e-04  3.59807e+02  3.60054e+02  4.81594e+00  4.85355e+00  1.11761e-01  4.39051e+01  1.90166e+02  8.44153e+04 -3.81592e+05  1.25422e+03  0.00000e+00 -2.95922e+05  2.48336e+04 -2.71088e+05  1.11765e-01  1.00000e+00 -4.38951e+01  0.00000e+00  7.04275e-01 
 4.69084e-03  1.08931e-03  0.00000e+00  3.47944e+00  1.96622e-04  3.59810e+02  3.60054e+02  4.81242e+00  4.85304e+00  1.15242e-01  4.08993e+01  1.77219e+02  1.07264e+05 -3.53109e+05  1.16890e+03  0.00000e+00 -2.44676e+05  2.09073e+04 -2.23768e+05  1.15246e-01  1.00000e+00 -4.08898e+01  0.00000e+00  7.37110e-01 
 4.75174e-03  1.32727e-03  1.05001e-20  3.47944e+00  2.07675e-04  3.59814e+02  3.60054e+02  4.80799e+00  4.85097e+00  1.19579e-01  3.90188e+01  1.67787e+02  1.27820e+05 -3.38897e+05  1.10644e+03  0.00000e+00 -2.09971e+05  1.81996e+04 -1.91771e+05  1.19583e-01  1.00000e+00 -3.90097e+01  0.00000e+00  7.79177e-01 
 4.82366e-03  1.56534e-03  0.00000e+00  3.47944e+00  2.17360e-04  3.59820e+02  3.60054e+02  4.80256e+00  4.84749e+00  1.24787e-01  3.77475e+01  1.60310e+02  1.47368e+05 -3.33189e+05  1.05664e+03  0.00000e+00 -1.84764e+05  1.61199e+04 -1.68644e+05  1.24791e-01  1.00000e+00 -3.77384e+01  0.00000e+00  8.31305e-01 
 4.90611e-03  1.80349e-03  8.81027e-21  3.47944e+00  2.26359e-04  3.59826e+02  3.60054e+02  4.79607e+00  4.84269e+00  1.30867e-01  3.67901e+01  1.53937e+02  1.66563e+05 -3.32857e+05  1.01392e+03  0.00000e+00 -1.65280e+05  1.43856e+04 -1.50895e+05  1.30871e-01  1.00000e+00 -3.67810e+01  0.00000e+00  8.94534e-01 
 4.99859e-03  2.04170e-03  0.00000e+00  3.47944e+00  2.35160e-04  3.59834e+02  3.60054e+02  4.78839e+00  4.83658e+00  1.37813e-01  3.59621e+01  1.48176e+02  1.85580e+05 -3.36001e+05  9.75066e+02  0.00000e+00 -1.49447e+05  1.28533e+04 -1.36593e+05  1.37817e-01  1.00000e+00 -3.59529e+01  0.00000e+00  9.70085e-01 
 5.10055e-03  2.27996e-03  7.58893e-21  3.47944e+00  2.44121e-04  3.59842e+02  3.60054e+02  4.77940e+00  4.82913e+00  1.45602e-01  3.51366e+01  1.42737e+02  2.04269e+05 -3.41298e+05  9.38176e+02  0.00000e+00 -1.36091e+05  1.14502e+04 -1.24641e+05  1.45605e-01  1.00000e+00 -3.51274e+01  0.00000e+00  1.05937e+00 
 5.21143e-03  2.51826e-03  7.09702e-21  3.47944e+00  2.53505e-04  3.59851e+02  3.60054e+02  4.76895e+00  4.82023e+00  1.54192e-01  3.42254e+01  1.37453e+02  2.22278e+05 -3.47743e+05  9.02155e+02  0.00000e+00 -1.24563e+05  1.01420e+04 -1.14421e+05  1.54195e-01  1.00000e+00 -3.42160e+01  0.00000e+00  1.16395e+00 
 5.33068e-03  2.75659e-03  1.33300e-20  3.47944e+00  2.63497e-04  3.59861e+02  3.60054e+02  4.75686e+00  4.80975e+00  1.63512e-01  3.31674e+01  1.32241e+02  2.39158e+05 -3.54504e+05  8.66448e+02  0.00000e+00 -1.14479e+05  8.91676e+03 -1.05562e+05  1.63514e-01  1.00000e+00 -3.31579e+01  0.00000e+00  1.28553e+00 
 5.45775e-03  2.99495e-03  1.25651e-20  3.47944e+00  2.74211e-04  3.59871e+02  3.60054e+02  4.74295e+00  4.79754e+00  1.73479e-01  3.19286e+01  1.27074e+02  2.54451e+05 -3.60925e+05  8.30884e+02  0.00000e+00 -1.05644e+05  7.77438e+03 -9.78695e+04  1.73481e-01  1.00000e+00 -3.19189e+01  0.00000e+00  1.42591e+00 
 5.59212e-03  3.23333e-03  0.00000e+00  3.47944e+00  2.85686e-04  3.59882e+02  3.60054e+02  4.72704e+00  4.78340e+00  1.83971e-01  3.04958e+01  1.21970e+02  2.67785e+05 -3.66474e+05  7.95570e+02  0.00000e+00 -9.78935e+04  6.72069e+03 -9.11728e+04  1.83972e-01  1.00000e+00 -3.04860e+01  0.00000e+00  1.58697e+00 
 5.73326e-03  3.47172e-03  0.00000e+00  3.47944e+00  2.97885e-04  3.59894e+02  3.60054e+02  4.70895e+00  4.76714e+00  1.94873e-01  2.88794e+01  1.16975e+02  2.78913e+05 -3.70828e+05  7.60815e+02  0.00000e+00 -9.11546e+04  5.76225e+03 -8.53923e+04  1.94874e-01  1.00000e+00 -2.88695e+01  0.00000e+00  1.77055e+00 
 5.88069e-03  3.71014e-03 -5.35987e-21  3.47944e+00  3.10685e-04  3.59905e+02  3.60054e+02  4.68853e+00  4.74861e+00  2.06026e-01  2.71030e+01  1.12156e+02  2.87799e+05 -3.73809e+05  7.27045e+02  0.00000e+00 -8.52823e+04  4.90422e+03 -8.03781e+04  2.06028e-01  1.00000e+00 -2.70931e+01  0.00000e+00  1.97858e+00 
 6.03395e-03  3.94857e-03  5.10973e-21  3.47944e+00  3.23882e-04  3.59917e+02  3.60054e+02  4.66567e+00  4.72763e+00  2.17318e-01  2.52061e+01  1.07586e+02  2.94575e+05 -3.75505e+05  6.94751e+02  0.00000e+00 -8.02352e+04  4.14769e+03 -7.60875e+04  2.17320e-01  1.00000e+00 -2.51962e+01  0.00000e+00  2.21286e+00 
 6.19261e-03  4.18701e-03  0.00000e+00  3.47944e+00  3.37189e-04  3.59929e+02  3.60054e+02  4.64029e+00  4.70409e+00  2.28577e-01  2.32276e+01  1.03340e+02  2.99612e+05 -3.76110e+05  6.64408e+02  0.00000e+00 -7.58336e+04  3.49031e+03 -7.23433e+04  2.28580e-01  1.00000e+00 -2.32176e+01  0.00000e+00  2.47546e+00 
 6.35626e-03  4.42546e-03  0.00000e+00  3.47944e+00  3.50265e-04  3.59942e+02  3.60054e+02  4.61235e+00  4.67787e+00  2.39739e-01  2.12106e+01  9.94829e+01  3.03364e+05 -3.76092e+05  6.36437e+02  0.00000e+00 -7.20911e+04  2.92527e+03 -6.91658e+04  2.39743e-01  1.00000e+00 -2.12007e+01  0.00000e+00  2.76837e+00 
 6.52453e-03  4.66392e-03 -8.96437e-21  3.47944e+00  3.62719e-04  3.59954e+02  3.60054e+02  4.58184e+00  4.64891e+00  2.50653e-01  1.91848e+01  9.60674e+01  3.06463e+05 -3.75901e+05  6.11154e+02  0.00000e+00 -6.88266e+04  2.44365e+03 -6.63829e+04  2.50657e-01  1.00000e+00 -1.91749e+01  0.00000e+00  3.09440e+00 
 6.69707e-03  4.90238e-03  1.72236e-20  3.47944e+00  3.74176e-04  3.59966e+02  3.60054e+02  4.54872e+00  4.61709e+00  2.61330e-01  1.71748e+01  9.31261e+01  3.09455e+05 -3.76199e+05  5.88762e+02  0.00000e+00 -6.61545e+04  2.03386e+03 -6.41206e+04  2.61336e-01  1.00000e+00 -1.71648e+01  0.00000e+00  3.45630e+00 
 6.87356e-03  5.14086e-03  8.28595e-21  3.47944e+00  3.84269e-04  3.59979e+02  3.60054e+02  4.51298e+00  4.58233e+00  2.71633e-01  1.51856e+01  9.06804e+01  3.13010e+05 -3.77463e+05  5.69338e+02  0.00000e+00 -6.38833e+04  1.68452e+03 -6.21988e+04  2.71639e-01  1.00000e+00 -1.51756e+01  0.00000e+00  3.85872e+00 
 7.05370e-03  5.37934e-03 -1.59677e-20  3.47944e+00  3.92723e-04  3.59991e+02  3.60054e+02  4.47446e+00  4.54445e+00  2.81659e-01  1.32167e+01  8.87287e+01  3.17546e+05 -3.80352e+05  5.52845e+02  0.00000e+00 -6.22534e+04  1.38334e+03 -6.08701e+04  2.81666e-01  1.00000e+00 -1.32066e+01  0.00000e+00  4.30587e+00 
 7.23722e-03  5.61783e-03  0.00000e+00  3.47944e+00  3.99293e-04  3.60004e+02  3.60054e+02  4.43318e+00  4.50343e+00  2.91264e-01  1.12502e+01  8.72689e+01  3.23680e+05 -3.85254e+05  5.39139e+02  0.00000e+00 -6.10345e+04  1.11978e+03 -5.99147e+04  2.91270e-01  1.00000e+00 -1.12399e+01  0.00000e+00  4.80601e+00 
 7.42387e-03  5.85632e-03  0.00000e+00  3.47944e+00  4.03873e-04  3.60016e+02  3.60055e+02  4.38879e+00  4.45872e+00  3.00633e-01  9.25911e+00  8.62797e+01  3.31664e+05 -3.92791e+05  5.28085e+02  0.00000e+00 -6.05995e+04  8.82568e+02 -5.97169e+04  3.00640e-01  1.00000e+00 -9.24866e+00  0.00000e+00  5.36607e+00 
 7.61342e-03  6.09482e-03  0.00000e+00  3.47944e+00  4.06342e-04  3.60028e+02  3.60055e+02  4.34106e+00  4.41023e+00  3.09583e-01  7.21735e+00  8.57558e+01  3.42140e+05 -4.03299e+05  5.19476e+02  0.00000e+00 -6.06391e+04  6.63769e+02 -5.99753e+04  3.09590e-01  1.00000e+00 -7.20665e+00  0.00000e+00  6.00021e+00 
 7.80566e-03  6.33332e-03  0.00000e+00  3.47944e+00  4.06734e-04  3.60041e+02  3.60055e+02  4.28924e+00  4.35740e+00  3.18377e-01  5.08428e+00  8.56733e+01  3.55211e+05 -4.17460e+05  5.13138e+02  0.00000e+00 -6.17359e+04  4.53929e+02 -6.12819e+04  3.18385e-01  1.00000e+00 -5.07327e+00  0.00000e+00  6.71688e+00 
 8.00039e-03  6.57182e-03  0.00000e+00  3.47944e+00  4.04979e-04  3.60054e+02  3.60055e+02  4.23393e+00  4.30088e+00  3.26729e-01  2.80495e+00  8.60451e+01  3.71849e+05 -4.35734e+05  5.08900e+02  0.00000e+00 -6.33754e+04  2.44619e+02 -6.31308e+04  3.26736e-01  1.00000e+00 -2.79354e+00  0.00000e+00  7.54271e+00 
 8.19744e-03  6.81033e-03  1.31016e-20  3.47944e+00  4.01193e-04  3.60066e+02  3.60055e+02  4.17341e+00  4.23862e+00  3.35001e-01  3.10876e-01  8.68576e+01  3.92233e+05 -4.59135e+05  5.06568e+02  0.00000e+00 -6.63955e+04  2.57767e+01 -6.63697e+04  3.35009e-01  1.00000e+00 -2.98999e-01  0.00000e+00  8.49433e+00 
 8.39664e-03  7.04884e-03  0.00000e+00  3.47944e+00  3.95295e-04  3.60080e+02  3.60056e+02  4.10884e+00  4.17191e+00  3.42871e-01 -5.68751e+00  8.81541e+01  4.17977e+05 -4.88613e+05  5.06119e+02  0.00000e+00 -7.01292e+04 -4.88456e+02 -7.06177e+04  3.42879e-01  1.00000e+00  5.71370e+00  0.00000e+00  9.62481e+00 
 8.59784e-03  7.28736e-03  0.00000e+00  3.47944e+00  3.87396e-04  3.60093e+02  3.60056e+02  4.03581e+00  4.09632e+00  3.50776e-01 -1.30399e+01  8.99519e+01  4.49484e+05 -5.25995e+05  5.07428e+02  0.00000e+00 -7.60036e+04 -1.11420e+03 -7.71178e+04  3.50784e-01  1.00000e+00  1.30673e+01  0.00000e+00  1.09592e+01 
 8.80092e-03  7.52587e-03  0.00000e+00  3.47944e+00  3.77223e-04  3.60108e+02  3.60056e+02  3.95939e+00  4.01703e+00  3.58325e-01 -2.19765e+01  9.23784e+01  4.90101e+05 -5.73852e+05  5.10836e+02  0.00000e+00 -8.32396e+04 -1.88635e+03 -8.51259e+04  3.58332e-01  1.00000e+00  2.20055e+01  0.00000e+00  1.26131e+01 
 9.00573e-03  7.76439e-03 -1.17014e-20  3.47944e+00  3.64863e-04  3.60124e+02  3.60057e+02  3.86749e+00  3.92189e+00  3.66007e-01 -3.34095e+01  9.55086e+01  5.41192e+05 -6.36023e+05  5.16048e+02  0.00000e+00 -9.43153e+04 -2.90149e+03 -9.72168e+04  3.66014e-01  1.00000e+00  3.34403e+01  0.00000e+00  1.46416e+01 
 9.21216e-03  8.00291e-03  0.00000e+00  3.47944e+00  3.49871e-04  3.60144e+02  3.60057e+02  3.77513e+00  3.82597e+00  3.73446e-01 -4.89173e+01  9.96017e+01  6.10159e+05 -7.18912e+05  5.24218e+02  0.00000e+00 -1.08229e+05 -4.34106e+03 -1.12570e+05  3.73451e-01  1.00000e+00  4.89504e+01  0.00000e+00  1.73331e+01 
 9.42012e-03  8.24144e-03  0.00000e+00  3.47944e+00  3.32329e-04  3.60168e+02  3.60057e+02  3.65125e+00  3.69831e+00  3.81115e-01 -7.13817e+01  1.04860e+02  7.01746e+05 -8.31896e+05  5.34011e+02  0.00000e+00 -1.29616e+05 -6.53367e+03 -1.36150e+05  3.81122e-01  1.00000e+00  7.14174e+01  0.00000e+00  2.08575e+01 
 9.62949e-03  8.47996e-03  0.00000e+00  3.47944e+00  3.11499e-04  3.60201e+02  3.60058e+02  3.53301e+00  3.57602e+00  3.88762e-01 -1.06856e+02  1.11873e+02  8.36217e+05 -9.93518e+05  5.48971e+02  0.00000e+00 -1.56752e+05 -1.02283e+04 -1.66981e+05  3.88766e-01  1.00000e+00  1.06896e+02  0.00000e+00  2.61050e+01 
 9.84019e-03  8.71849e-03  0.00000e+00  3.47944e+00  2.87429e-04  3.60251e+02  3.60058e+02  3.34819e+00  3.38741e+00  3.96723e-01 -1.68677e+02  1.21243e+02  1.03521e+06 -1.23350e+06  5.63970e+02  0.00000e+00 -1.97722e+05 -1.71449e+04 -2.14867e+05  3.96728e-01  1.00000e+00  1.68721e+02  0.00000e+00  3.39648e+01 
 1.00521e-02  8.95702e-03  0.00000e+00  3.47944e+00  2.58916e-04  3.60335e+02  3.60059e+02  3.16763e+00  3.20313e+00  4.04814e-01 -2.94776e+02  1.34596e+02  1.38091e+06 -1.61820e+06  5.87340e+02  0.00000e+00 -2.36705e+05 -3.25943e+04 -2.69299e+05  4.04816e-01  1.00000e+00  2.94826e+02  0.00000e+00  4.87075e+01 
 1.02653e-02  9.19555e-03  0.00000e+00  3.47944e+00  2.27135e-04  3.60511e+02  3.60060e+02  2.82887e+00  2.85969e+00  4.14249e-01 -6.10178e+02  1.53432e+02  2.02398e+06 -2.24338e+06  5.94460e+02  0.00000e+00 -2.18804e+05 -7.51534e+04 -2.93957e+05  4.14256e-01  1.00000e+00  6.10236e+02  0.00000e+00  8.06317e+01 
 1.04795e-02  9.43408e-03  0.00000e+00  3.47944e+00  1.96439e-04  3.61051e+02  3.60061e+02  2.35550e+00  2.37600e+00  4.24914e-01 -5.10380e+03  1.77410e+02  3.55885e+06 -2.87909e+06  5.90850e+02  9.66823e+05  1.64717e+06 -1.64517e+06  2.00153e+03  4.24914e-01  1.00000e+00  5.10386e+03  3.36489e+03  2.04256e+02 
