# Code_Saturne plot output (1D profile)
#
# Iteration output: 2632
# Time output:      2.30005e+01
#
#COLUMN_TITLES: Distance | X | Y | Z | diameter_Field2 | temp_Field1 | temp_Field2 | Velocity_Field1[Z] | Velocity_Field2[Z] | vol_f_Field2 | mass_trans_Field1 | Xd_Field2 | BK | COAL | COMP | NUCL | W1 | MT | SMBR | ALPBB | CONDNUM | GAMA | GAMANUC | epsilon_Field1
 4.56474e-03  1.39645e-04  0.00000e+00  3.47944e+00  8.64643e-05  3.60057e+02  3.60055e+02  5.07205e+00  5.08907e+00  1.42533e-01  7.57141e+00  4.02969e+02  1.24611e+02 -1.42744e+06  2.84563e+03  0.00000e+00 -1.42447e+06  1.17137e+04 -1.41276e+06  1.42525e-01  1.00000e+00 -7.60987e+00  0.00000e+00  6.56940e-01 
 4.57812e-03  3.76525e-04  4.25872e-21  3.47944e+00  1.19405e-04  3.60057e+02  3.60055e+02  5.07112e+00  5.09668e+00  1.43554e-01  4.87809e+00  2.91799e+02  1.00822e+04 -8.29081e+05  2.06278e+03  0.00000e+00 -8.16936e+05  5.42648e+03 -8.11510e+05  1.43547e-01  1.00000e+00 -4.90340e+00  0.00000e+00  6.66059e-01 
 4.60371e-03  6.13858e-04  0.00000e+00  3.47944e+00  1.46148e-04  3.60057e+02  3.60055e+02  5.06911e+00  5.10157e+00  1.45547e-01  3.67932e+00  2.38405e+02  4.64949e+04 -5.98138e+05  1.68697e+03  0.00000e+00 -5.49956e+05  3.29867e+03 -5.46657e+05  1.45540e-01  1.00000e+00 -3.69901e+00  0.00000e+00  6.83672e-01 
 4.64138e-03  8.51483e-04  0.00000e+00  3.47944e+00  1.66374e-04  3.60058e+02  3.60055e+02  5.06643e+00  5.10403e+00  1.48431e-01  3.02128e+00  2.09423e+02  9.07956e+04 -4.93347e+05  1.48272e+03  0.00000e+00 -4.01069e+05  2.33372e+03 -3.98735e+05  1.48425e-01  1.00000e+00 -3.03827e+00  0.00000e+00  7.10099e-01 
 4.69084e-03  1.08931e-03  0.00000e+00  3.47944e+00  1.81384e-04  3.60059e+02  3.60055e+02  5.06292e+00  5.10421e+00  1.52260e-01  2.58384e+00  1.92092e+02  1.30338e+05 -4.42401e+05  1.36031e+03  0.00000e+00 -3.10702e+05  1.78534e+03 -3.08917e+05  1.52254e-01  1.00000e+00 -2.59947e+00  0.00000e+00  7.45734e-01 
 4.75174e-03  1.32727e-03  1.05001e-20  3.47944e+00  1.92346e-04  3.60060e+02  3.60054e+02  5.05845e+00  5.10225e+00  1.57022e-01  2.24006e+00  1.81144e+02  1.64399e+05 -4.19656e+05  1.28270e+03  0.00000e+00 -2.53974e+05  1.41619e+03 -2.52558e+05  1.57016e-01  1.00000e+00 -2.25506e+00  0.00000e+00  7.91337e-01 
 4.82366e-03  1.56534e-03  0.00000e+00  3.47944e+00  2.00319e-04  3.60061e+02  3.60054e+02  5.05301e+00  5.09843e+00  1.62731e-01  1.92684e+00  1.73935e+02  1.95355e+05 -4.13915e+05  1.23120e+03  0.00000e+00 -2.17329e+05  1.12977e+03 -2.16199e+05  1.62724e-01  1.00000e+00 -1.94167e+00  0.00000e+00  8.47868e-01 
 4.90611e-03  1.80349e-03  8.81027e-21  3.47944e+00  2.06199e-04  3.60063e+02  3.60054e+02  5.04645e+00  5.09285e+00  1.69372e-01  1.60730e+00  1.68974e+02  2.25451e+05 -4.19480e+05  1.19533e+03  0.00000e+00 -1.92833e+05  8.81025e+02 -1.91952e+05  1.69366e-01  1.00000e+00 -1.62226e+00  0.00000e+00  9.16574e-01 
 4.99859e-03  2.04170e-03  0.00000e+00  3.47944e+00  2.10700e-04  3.60064e+02  3.60054e+02  5.03867e+00  5.08561e+00  1.76930e-01  1.25864e+00  1.65365e+02  2.56188e+05 -4.33152e+05  1.16875e+03  0.00000e+00 -1.75795e+05  6.48149e+02 -1.75147e+05  1.76923e-01  1.00000e+00 -1.27393e+00  0.00000e+00  9.98926e-01 
 5.10055e-03  2.27996e-03  7.58893e-21  3.47944e+00  2.14354e-04  3.60066e+02  3.60054e+02  5.02950e+00  5.07667e+00  1.85367e-01  8.67065e-01  1.62546e+02  2.88409e+05 -4.52951e+05  1.14751e+03  0.00000e+00 -1.63394e+05  4.21417e+02 -1.62973e+05  1.85360e-01  1.00000e+00 -8.82847e-01  0.00000e+00  1.09663e+00 
 5.21143e-03  2.51826e-03  7.09702e-21  3.47944e+00  2.17548e-04  3.60068e+02  3.60054e+02  5.01877e+00  5.06598e+00  1.94628e-01  4.26015e-01  1.60159e+02  3.22464e+05 -4.77496e+05  1.12904e+03  0.00000e+00 -1.53903e+05  1.98167e+02 -1.53704e+05  1.94621e-01  1.00000e+00 -4.42389e-01  0.00000e+00  1.21160e+00 
 5.33068e-03  2.75659e-03  1.33300e-20  3.47944e+00  2.20561e-04  3.60070e+02  3.60054e+02  5.00632e+00  5.05344e+00  2.04626e-01 -1.89960e-01  1.57972e+02  3.58327e+05 -5.05670e+05  1.11168e+03  0.00000e+00 -1.46231e+05 -6.46561e+01 -1.46296e+05  2.04619e-01  1.00000e+00  1.53856e-01  0.00000e+00  1.34596e+00 
 5.45775e-03  2.99495e-03  1.25651e-20  3.47944e+00  2.23589e-04  3.60072e+02  3.60054e+02  4.99192e+00  5.03888e+00  2.15265e-01 -1.34917e+00  1.55833e+02  3.95669e+05 -5.36481e+05  1.09434e+03  0.00000e+00 -1.39718e+05 -5.16824e+02 -1.40235e+05  2.15258e-01  1.00000e+00  1.31155e+00  0.00000e+00  1.50193e+00 
 5.59212e-03  3.23333e-03  0.00000e+00  3.47944e+00  2.26764e-04  3.60074e+02  3.60054e+02  4.97535e+00  5.02212e+00  2.26418e-01 -2.59267e+00  1.53651e+02  4.33974e+05 -5.68983e+05  1.07636e+03  0.00000e+00 -1.33932e+05 -9.43260e+02 -1.34876e+05  2.26410e-01  1.00000e+00  2.55350e+00  0.00000e+00  1.68187e+00 
 5.73326e-03  3.47172e-03  0.00000e+00  3.47944e+00  2.30171e-04  3.60076e+02  3.60054e+02  4.95644e+00  5.00301e+00  2.37954e-01 -3.89737e+00  1.51376e+02  4.72591e+05 -6.02263e+05  1.05737e+03  0.00000e+00 -1.28615e+05 -1.33551e+03 -1.29950e+05  2.37946e-01  1.00000e+00  3.85667e+00  0.00000e+00  1.88814e+00 
 5.88069e-03  3.71014e-03 -5.35987e-21  3.47944e+00  2.33847e-04  3.60078e+02  3.60054e+02  4.93499e+00  4.98136e+00  2.49720e-01 -5.23657e+00  1.48997e+02  5.10846e+05 -6.35468e+05  1.03725e+03  0.00000e+00 -1.23585e+05 -1.68705e+03 -1.25272e+05  2.49713e-01  1.00000e+00  5.19441e+00  0.00000e+00  2.12315e+00 
 6.03395e-03  3.94857e-03  5.10973e-21  3.47944e+00  2.37790e-04  3.60080e+02  3.60054e+02  4.91082e+00  4.95701e+00  2.61580e-01 -6.58277e+00  1.46527e+02  5.48085e+05 -6.67879e+05  1.01608e+03  0.00000e+00 -1.18778e+05 -1.99391e+03 -1.20772e+05  2.61572e-01  1.00000e+00  6.53925e+00  0.00000e+00  2.38916e+00 
 6.19261e-03  4.18701e-03  0.00000e+00  3.47944e+00  2.41961e-04  3.60081e+02  3.60054e+02  4.88384e+00  4.92985e+00  2.73381e-01 -7.91073e+00  1.44001e+02  5.83840e+05 -6.98948e+05  9.94033e+02  0.00000e+00 -1.14114e+05 -2.25533e+03 -1.16369e+05  2.73375e-01  1.00000e+00  7.86596e+00  0.00000e+00  2.68857e+00 
 6.35626e-03  4.42546e-03  0.00000e+00  3.47944e+00  2.46288e-04  3.60083e+02  3.60055e+02  4.85396e+00  4.89982e+00  2.84996e-01 -9.20062e+00  1.41472e+02  6.17808e+05 -7.28354e+05  9.71641e+02  0.00000e+00 -1.09574e+05 -2.47362e+03 -1.12048e+05  2.84991e-01  1.00000e+00  9.15472e+00  0.00000e+00  3.02366e+00 
 6.52453e-03  4.66392e-03 -8.96437e-21  3.47944e+00  2.50667e-04  3.60084e+02  3.60055e+02  4.82115e+00  4.86686e+00  2.96341e-01 -1.04408e+01  1.39001e+02  6.49970e+05 -7.56167e+05  9.49217e+02  0.00000e+00 -1.05248e+05 -2.65374e+03 -1.07901e+05  2.96338e-01  1.00000e+00  1.03939e+01  0.00000e+00  3.39733e+00 
 6.69707e-03  4.90238e-03  1.72236e-20  3.47944e+00  2.54972e-04  3.60086e+02  3.60055e+02  4.78534e+00  4.83087e+00  3.07355e-01 -1.16286e+01  1.36654e+02  6.80478e+05 -7.82664e+05  9.27291e+02  0.00000e+00 -1.01259e+05 -2.80271e+03 -1.04061e+05  3.07349e-01  1.00000e+00  1.15808e+01  0.00000e+00  3.81207e+00 
 6.87356e-03  5.14086e-03  8.28595e-21  3.47944e+00  2.59055e-04  3.60087e+02  3.60055e+02  4.74657e+00  4.79189e+00  3.17987e-01 -1.27707e+01  1.34500e+02  7.09958e+05 -8.08510e+05  9.06199e+02  0.00000e+00 -9.76458e+04 -2.92904e+03 -1.00575e+05  3.17979e-01  1.00000e+00  1.27219e+01  0.00000e+00  4.27303e+00 
 7.05370e-03  5.37934e-03 -1.59677e-20  3.47944e+00  2.62765e-04  3.60088e+02  3.60055e+02  4.70482e+00  4.74988e+00  3.28206e-01 -1.38830e+01  1.32602e+02  7.38977e+05 -8.34435e+05  8.86435e+02  0.00000e+00 -9.45716e+04 -3.04223e+03 -9.76138e+04  3.28197e-01  1.00000e+00  1.38334e+01  0.00000e+00  4.78383e+00 
 7.23722e-03  5.61783e-03  0.00000e+00  3.47944e+00  2.65936e-04  3.60089e+02  3.60055e+02  4.66009e+00  4.70482e+00  3.37974e-01 -1.49902e+01  1.31021e+02  7.68698e+05 -8.61521e+05  8.68278e+02  0.00000e+00 -9.19551e+04 -3.15251e+03 -9.51077e+04  3.37966e-01  1.00000e+00  1.49397e+01  0.00000e+00  5.35331e+00 
 7.42387e-03  5.85632e-03  0.00000e+00  3.47944e+00  2.68422e-04  3.60090e+02  3.60055e+02  4.61208e+00  4.65639e+00  3.47300e-01 -1.61290e+01  1.29809e+02  8.00051e+05 -8.90882e+05  8.52133e+02  0.00000e+00 -8.99797e+04 -3.27092e+03 -9.32506e+04  3.47293e-01  1.00000e+00  1.60774e+01  0.00000e+00  5.98875e+00 
 7.61342e-03  6.09482e-03  0.00000e+00  3.47944e+00  2.70075e-04  3.60091e+02  3.60055e+02  4.56073e+00  4.60446e+00  3.56213e-01 -1.73464e+01  1.29014e+02  8.34499e+05 -9.24049e+05  8.38157e+02  0.00000e+00 -8.87117e+04 -3.40934e+03 -9.21210e+04  3.56206e-01  1.00000e+00  1.72937e+01  0.00000e+00  6.70485e+00 
 7.80566e-03  6.33332e-03  0.00000e+00  3.47944e+00  2.70779e-04  3.60092e+02  3.60056e+02  4.50550e+00  4.54849e+00  3.64733e-01 -1.87071e+01  1.28680e+02  8.73195e+05 -9.62417e+05  8.26585e+02  0.00000e+00 -8.83959e+04 -3.58212e+03 -9.19780e+04  3.64725e-01  1.00000e+00  1.86531e+01  0.00000e+00  7.51396e+00 
 8.00039e-03  6.57182e-03  0.00000e+00  3.47944e+00  2.70412e-04  3.60093e+02  3.60056e+02  4.44643e+00  4.48848e+00  3.72921e-01 -2.02981e+01  1.28855e+02  9.18158e+05 -1.00813e+06  8.17431e+02  0.00000e+00 -8.91534e+04 -3.80718e+03 -9.29605e+04  3.72913e-01  1.00000e+00  2.02426e+01  0.00000e+00  8.44324e+00 
 8.19744e-03  6.81033e-03  1.31016e-20  3.47944e+00  2.68888e-04  3.60094e+02  3.60056e+02  4.38218e+00  4.42307e+00  3.80776e-01 -2.22436e+01  1.29586e+02  9.70942e+05 -1.06308e+06  8.10874e+02  0.00000e+00 -9.13254e+04 -4.10990e+03 -9.54353e+04  3.80766e-01  1.00000e+00  2.21863e+01  0.00000e+00  9.51336e+00 
 8.39664e-03  7.04884e-03  0.00000e+00  3.47944e+00  2.66104e-04  3.60096e+02  3.60056e+02  4.31355e+00  4.35306e+00  3.88390e-01 -2.47276e+01  1.30943e+02  1.03481e+06 -1.13068e+06  8.06941e+02  0.00000e+00 -9.50647e+04 -4.52701e+03 -9.95917e+04  3.88378e-01  1.00000e+00  2.46681e+01  0.00000e+00  1.07778e+01 
 8.59784e-03  7.28736e-03  0.00000e+00  3.47944e+00  2.61986e-04  3.60098e+02  3.60057e+02  4.23684e+00  4.27470e+00  3.95705e-01 -2.80349e+01  1.33001e+02  1.11230e+06 -1.21406e+06  8.05791e+02  0.00000e+00 -1.00951e+05 -5.11788e+03 -1.06069e+05  3.95691e-01  1.00000e+00  2.79729e+01  0.00000e+00  1.22732e+01 
 8.80092e-03  7.52587e-03  0.00000e+00  3.47944e+00  2.56425e-04  3.60101e+02  3.60057e+02  4.15586e+00  4.19185e+00  4.02962e-01 -3.26312e+01  1.35887e+02  1.20955e+06 -1.32000e+06  8.07558e+02  0.00000e+00 -1.09635e+05 -5.97786e+03 -1.15613e+05  4.02951e-01  1.00000e+00  3.25660e+01  0.00000e+00  1.41169e+01 
 9.00573e-03  7.76439e-03 -1.17014e-20  3.47944e+00  2.49326e-04  3.60105e+02  3.60057e+02  4.06004e+00  4.09395e+00  4.10055e-01 -3.93204e+01  1.39757e+02  1.33203e+06 -1.45531e+06  8.12143e+02  0.00000e+00 -1.22466e+05 -7.28215e+03 -1.29748e+05  4.10040e-01  1.00000e+00  3.92513e+01  0.00000e+00  1.63917e+01 
 9.21216e-03  8.00291e-03  0.00000e+00  3.47944e+00  2.40499e-04  3.60111e+02  3.60058e+02  3.96264e+00  3.99416e+00  4.17280e-01 -4.95595e+01  1.44888e+02  1.49448e+06 -1.63522e+06  8.20338e+02  0.00000e+00 -1.39920e+05 -9.35309e+03 -1.49274e+05  4.17269e-01  1.00000e+00  4.94856e+01  0.00000e+00  1.93996e+01 
 9.42012e-03  8.24144e-03  0.00000e+00  3.47944e+00  2.29839e-04  3.60120e+02  3.60058e+02  3.83028e+00  3.85860e+00  4.24376e-01 -6.62055e+01  1.51609e+02  1.70885e+06 -1.87618e+06  8.33150e+02  0.00000e+00 -1.66491e+05 -1.28592e+04 -1.79350e+05  4.24366e-01  1.00000e+00  6.61257e+01  0.00000e+00  2.33070e+01 
 9.62949e-03  8.47996e-03  0.00000e+00  3.47944e+00  2.16999e-04  3.60135e+02  3.60059e+02  3.70566e+00  3.73132e+00  4.31822e-01 -9.54520e+01  1.60582e+02  2.01723e+06 -2.21969e+06  8.50679e+02  0.00000e+00 -2.01609e+05 -1.93033e+04 -2.20913e+05  4.31827e-01  1.00000e+00  9.53643e+01  0.00000e+00  2.90310e+01 
 9.84019e-03  8.71849e-03  0.00000e+00  3.47944e+00  2.01869e-04  3.60162e+02  3.60059e+02  3.51363e+00  3.53635e+00  4.39152e-01 -1.52407e+02  1.72619e+02  2.47103e+06 -2.72111e+06  8.68956e+02  0.00000e+00 -2.49210e+05 -3.25872e+04 -2.81798e+05  4.39162e-01  1.00000e+00  1.52309e+02  0.00000e+00  3.75613e+01 
 1.00521e-02  8.95702e-03  0.00000e+00  3.47944e+00  1.83891e-04  3.60215e+02  3.60060e+02  3.32619e+00  3.34656e+00  4.46848e-01 -2.82121e+02  1.89497e+02  3.24451e+06 -3.52221e+06  8.95585e+02  0.00000e+00 -2.76808e+05 -6.50942e+04 -3.41902e+05  4.46862e-01  1.00000e+00  2.82009e+02  0.00000e+00  5.33355e+01 
 1.02653e-02  9.19555e-03  0.00000e+00  3.47944e+00  1.64175e-04  3.60347e+02  3.60061e+02  2.98245e+00  3.00096e+00  4.54679e-01 -6.50463e+02  2.12258e+02  4.66437e+06 -4.79379e+06  8.94741e+02  0.00000e+00 -1.28527e+05 -1.65251e+05 -2.93779e+05  4.54684e-01  1.00000e+00  6.50332e+02  0.00000e+00  8.76337e+01 
 1.04795e-02  9.43408e-03  0.00000e+00  3.47944e+00  1.48858e-04  3.60831e+02  3.60062e+02  2.50146e+00  2.51584e+00  4.65447e-01 -5.54808e+03  2.34103e+02  7.73554e+06 -6.01796e+06  8.51809e+02  9.24557e+05  2.64299e+06 -2.66362e+06 -2.06254e+04  4.65462e-01  1.00000e+00  5.54793e+03  3.41342e+03  2.19912e+02 
