# Code_Saturne plot output (1D profile)
#
# Iteration output: 10879
# Time output:      2.30004e+01
#
#COLUMN_TITLES: Distance | X | Y | Z | diameter_Field2 | temp_Field1 | temp_Field2 | Velocity_Field1[Z] | Velocity_Field2[Z] | vol_f_Field2 | mass_trans_Field1 | Xd_Field2 | BK | COAL | COMP | NUCL | W1 | MT | SMBR | ALPBB | CONDNUM | GAMA | GAMANUC | epsilon_Field1
 4.56474e-03  1.39645e-04  0.00000e+00  3.47944e+00  1.09263e-03  3.60342e+02  3.60119e+02  8.18447e+00  8.38964e+00  6.55992e-01 -3.26837e+01  3.17862e+01  7.01147e+04 -6.46549e+04  8.42874e+02  0.00000e+00  6.30269e+03 -9.47363e+02  5.35533e+03  6.55991e-01  1.00000e+00  3.26784e+01  0.00000e+00  1.09647e+01 
 4.57812e-03  3.76525e-04  4.25872e-21  3.47944e+00  1.09079e-03  3.60342e+02  3.60119e+02  8.18353e+00  8.38866e+00  6.55994e-01 -3.27351e+01  3.18398e+01  7.04011e+04 -6.49536e+04  8.44282e+02  0.00000e+00  6.29178e+03 -9.50451e+02  5.34133e+03  6.55993e-01  1.00000e+00  3.27297e+01  0.00000e+00  1.10068e+01 
 4.60371e-03  6.13858e-04  0.00000e+00  3.47944e+00  1.08689e-03  3.60341e+02  3.60119e+02  8.17959e+00  8.38437e+00  6.55972e-01 -3.28390e+01  3.19541e+01  7.10028e+04 -6.56311e+04  8.47024e+02  0.00000e+00  6.21877e+03 -9.56923e+02  5.26185e+03  6.55970e-01  1.00000e+00  3.28337e+01  0.00000e+00  1.10898e+01 
 4.64138e-03  8.51483e-04  0.00000e+00  3.47944e+00  1.08098e-03  3.60341e+02  3.60119e+02  8.17411e+00  8.37800e+00  6.55934e-01 -3.29837e+01  3.21289e+01  7.19225e+04 -6.66965e+04  8.51224e+02  0.00000e+00  6.07722e+03 -9.66451e+02  5.11077e+03  6.55932e-01  1.00000e+00  3.29783e+01  0.00000e+00  1.12140e+01 
 4.69084e-03  1.08931e-03  0.00000e+00  3.47944e+00  1.07309e-03  3.60340e+02  3.60119e+02  8.16652e+00  8.36890e+00  6.55884e-01 -3.31667e+01  3.23650e+01  7.31707e+04 -6.81652e+04  8.56819e+02  0.00000e+00  5.86233e+03 -9.79030e+02  4.88330e+03  6.55882e-01  1.00000e+00  3.31612e+01  0.00000e+00  1.13810e+01 
 4.75174e-03  1.32727e-03  1.05001e-20  3.47944e+00  1.06334e-03  3.60339e+02  3.60119e+02  8.15706e+00  8.35726e+00  6.55830e-01 -3.33846e+01  3.26620e+01  7.47561e+04 -7.00446e+04  8.63820e+02  0.00000e+00  5.57534e+03 -9.94589e+02  4.58075e+03  6.55828e-01  1.00000e+00  3.33791e+01  0.00000e+00  1.15925e+01 
 4.82366e-03  1.56534e-03  0.00000e+00  3.47944e+00  1.05184e-03  3.60338e+02  3.60119e+02  8.14554e+00  8.34286e+00  6.55779e-01 -3.36325e+01  3.30190e+01  7.66880e+04 -7.23378e+04  8.72160e+02  0.00000e+00  5.22232e+03 -1.01300e+03  4.20932e+03  6.55778e-01  1.00000e+00  3.36270e+01  0.00000e+00  1.18511e+01 
 4.90611e-03  1.80349e-03  8.81027e-21  3.47944e+00  1.03875e-03  3.60337e+02  3.60119e+02  8.13208e+00  8.32610e+00  6.55774e-01 -3.39217e+01  3.34350e+01  7.89734e+04 -7.50507e+04  8.81824e+02  0.00000e+00  4.80451e+03 -1.03459e+03  3.76992e+03  6.55773e-01  1.00000e+00  3.39160e+01  0.00000e+00  1.21606e+01 
 4.99859e-03  2.04170e-03  0.00000e+00  3.47944e+00  1.02421e-03  3.60336e+02  3.60120e+02  8.11660e+00  8.30741e+00  6.55773e-01 -3.42716e+01  3.39099e+01  8.16415e+04 -7.81884e+04  8.92825e+02  0.00000e+00  4.34600e+03 -1.06011e+03  3.28590e+03  6.55772e-01  1.00000e+00  3.42658e+01  0.00000e+00  1.25248e+01 
 5.10055e-03  2.27996e-03  7.58893e-21  3.47944e+00  1.00836e-03  3.60334e+02  3.60120e+02  8.09898e+00  8.28685e+00  6.55830e-01 -3.46891e+01  3.44429e+01  8.47055e+04 -8.17578e+04  9.05032e+02  0.00000e+00  3.85272e+03 -1.08979e+03  2.76293e+03  6.55829e-01  1.00000e+00  3.46832e+01  0.00000e+00  1.29499e+01 
 5.21143e-03  2.51826e-03  7.09702e-21  3.47944e+00  9.91394e-04  3.60332e+02  3.60120e+02  8.07894e+00  8.26368e+00  6.55934e-01 -3.51504e+01  3.50326e+01  8.81808e+04 -8.57738e+04  9.18419e+02  0.00000e+00  3.32536e+03 -1.12301e+03  2.20235e+03  6.55933e-01  1.00000e+00  3.51444e+01  0.00000e+00  1.34380e+01 
 5.33068e-03  2.75659e-03  1.33300e-20  3.47944e+00  9.73472e-04  3.60331e+02  3.60120e+02  8.05650e+00  8.23757e+00  6.56126e-01 -3.56361e+01  3.56777e+01  9.20852e+04 -9.02350e+04  9.32816e+02  0.00000e+00  2.78305e+03 -1.15915e+03  1.62390e+03  6.56125e-01  1.00000e+00  3.56299e+01  0.00000e+00  1.39966e+01 
 5.45775e-03  2.99495e-03  1.25651e-20  3.47944e+00  9.54720e-04  3.60329e+02  3.60120e+02  8.03158e+00  8.20863e+00  6.56391e-01 -3.61555e+01  3.63786e+01  9.64480e+04 -9.51827e+04  9.48288e+02  0.00000e+00  2.21367e+03 -1.19866e+03  1.01501e+03  6.56391e-01  1.00000e+00  3.61491e+01  0.00000e+00  1.46290e+01 
 5.59212e-03  3.23333e-03  0.00000e+00  3.47944e+00  9.35235e-04  3.60327e+02  3.60121e+02  8.00410e+00  8.17691e+00  6.56788e-01 -3.67134e+01  3.71367e+01  1.01303e+05 -1.00635e+05  9.64789e+02  0.00000e+00  1.63280e+03 -1.24177e+03  3.91026e+02  6.56787e-01  1.00000e+00  3.67069e+01  0.00000e+00  1.53471e+01 
 5.73326e-03  3.47172e-03  0.00000e+00  3.47944e+00  9.15109e-04  3.60324e+02  3.60121e+02  7.97377e+00  8.14216e+00  6.57247e-01 -3.73152e+01  3.79536e+01  1.06707e+05 -1.06649e+05  9.82390e+02  0.00000e+00  1.03981e+03 -1.28898e+03 -2.49176e+02  6.57247e-01  1.00000e+00  3.73085e+01  0.00000e+00  1.61555e+01 
 5.88069e-03  3.71014e-03 -5.35987e-21  3.47944e+00  8.94426e-04  3.60322e+02  3.60121e+02  7.94065e+00  8.10448e+00  6.57903e-01 -3.79638e+01  3.88315e+01  1.12682e+05 -1.13267e+05  1.00104e+03  0.00000e+00  4.16443e+02 -1.34038e+03 -9.23934e+02  6.57904e-01  1.00000e+00  3.79568e+01  0.00000e+00  1.70696e+01 
 6.03395e-03  3.94857e-03  5.10973e-21  3.47944e+00  8.73263e-04  3.60320e+02  3.60121e+02  7.90423e+00  8.06336e+00  6.58640e-01 -3.86654e+01  3.97728e+01  1.19312e+05 -1.20563e+05  1.02075e+03  0.00000e+00 -2.29793e+02 -1.39667e+03 -1.62646e+03  6.58642e-01  1.00000e+00  3.86582e+01  0.00000e+00  1.80954e+01 
 6.19261e-03  4.18701e-03  0.00000e+00  3.47944e+00  8.51687e-04  3.60317e+02  3.60122e+02  7.86481e+00  8.01915e+00  6.59592e-01 -3.94230e+01  4.07807e+01  1.26634e+05 -1.28592e+05  1.04170e+03  0.00000e+00 -9.16061e+02 -1.45801e+03 -2.37407e+03  6.59595e-01  1.00000e+00  3.94156e+01  0.00000e+00  1.92530e+01 
 6.35626e-03  4.42546e-03  0.00000e+00  3.47944e+00  8.29762e-04  3.60315e+02  3.60122e+02  7.82148e+00  7.97094e+00  6.60570e-01 -4.02475e+01  4.18585e+01  1.34778e+05 -1.37451e+05  1.06370e+03  0.00000e+00 -1.60940e+03 -1.52557e+03 -3.13497e+03  6.60574e-01  1.00000e+00  4.02398e+01  0.00000e+00  2.05505e+01 
 6.52453e-03  4.66392e-03 -8.96437e-21  3.47944e+00  8.07543e-04  3.60312e+02  3.60123e+02  7.77498e+00  7.91949e+00  6.61811e-01 -4.11436e+01  4.30106e+01  1.43761e+05 -1.47237e+05  1.08714e+03  0.00000e+00 -2.38881e+03 -1.59945e+03 -3.98826e+03  6.61815e-01  1.00000e+00  4.11356e+01  0.00000e+00  2.20143e+01 
 6.69707e-03  4.90238e-03  1.72236e-20  3.47944e+00  7.85071e-04  3.60310e+02  3.60123e+02  7.72367e+00  7.86315e+00  6.63087e-01 -4.21304e+01  4.42421e+01  1.53762e+05 -1.58091e+05  1.11159e+03  0.00000e+00 -3.21769e+03 -1.68146e+03 -4.89916e+03  6.63091e-01  1.00000e+00  4.21221e+01  0.00000e+00  2.36557e+01 
 6.87356e-03  5.14086e-03  8.28595e-21  3.47944e+00  7.62377e-04  3.60307e+02  3.60124e+02  7.66940e+00  7.80379e+00  6.64599e-01 -4.32153e+01  4.55596e+01  1.64851e+05 -1.70127e+05  1.13780e+03  0.00000e+00 -4.13837e+03 -1.77208e+03 -5.91045e+03  6.64601e-01  1.00000e+00  4.32066e+01  0.00000e+00  2.55131e+01 
 7.05370e-03  5.37934e-03 -1.59677e-20  3.47944e+00  7.39480e-04  3.60305e+02  3.60124e+02  7.60897e+00  7.73825e+00  6.66172e-01 -4.44344e+01  4.69707e+01  1.77228e+05 -1.83593e+05  1.16310e+03  0.00000e+00 -5.20280e+03 -1.87407e+03 -7.07687e+03  6.66174e-01  1.00000e+00  4.44254e+01  0.00000e+00  2.76005e+01 
 7.23722e-03  5.61783e-03  0.00000e+00  3.47944e+00  7.16345e-04  3.60302e+02  3.60125e+02  7.54615e+00  7.67012e+00  6.68097e-01 -4.57999e+01  4.84883e+01  1.91026e+05 -1.98633e+05  1.19093e+03  0.00000e+00 -6.41683e+03 -1.98832e+03 -8.40515e+03  6.68097e-01  1.00000e+00  4.57905e+01  0.00000e+00  2.99912e+01 
 7.42387e-03  5.85632e-03  0.00000e+00  3.47944e+00  6.92928e-04  3.60300e+02  3.60125e+02  7.47391e+00  7.59247e+00  6.69815e-01 -4.73842e+01  5.01274e+01  2.06709e+05 -2.15786e+05  1.21917e+03  0.00000e+00 -7.85768e+03 -2.12119e+03 -9.97886e+03  6.69815e-01  1.00000e+00  4.73743e+01  0.00000e+00  3.26820e+01 
 7.61342e-03  6.09482e-03  0.00000e+00  3.47944e+00  6.69225e-04  3.60298e+02  3.60126e+02  7.40168e+00  7.51479e+00  6.71912e-01 -4.92192e+01  5.19036e+01  2.24393e+05 -2.35188e+05  1.25037e+03  0.00000e+00 -9.54442e+03 -2.27428e+03 -1.18187e+04  6.71911e-01  1.00000e+00  4.92088e+01  0.00000e+00  3.57990e+01 
 7.80566e-03  6.33332e-03  0.00000e+00  3.47944e+00  6.45225e-04  3.60296e+02  3.60127e+02  7.31398e+00  7.42153e+00  6.73729e-01 -5.14326e+01  5.38350e+01  2.44724e+05 -2.57658e+05  1.28138e+03  0.00000e+00 -1.16528e+04 -2.45834e+03 -1.41111e+04  6.73728e-01  1.00000e+00  5.14216e+01  0.00000e+00  3.93303e+01 
 8.00039e-03  6.57182e-03  0.00000e+00  3.47944e+00  6.20808e-04  3.60295e+02  3.60127e+02  7.23272e+00  7.33468e+00  6.76101e-01 -5.40862e+01  5.59532e+01  2.68002e+05 -2.83369e+05  1.31746e+03  0.00000e+00 -1.40498e+04 -2.67747e+03 -1.67272e+04  6.76101e-01  1.00000e+00  5.40746e+01  0.00000e+00  4.35237e+01 
 8.19744e-03  6.81033e-03  1.31016e-20  3.47944e+00  5.96022e-04  3.60295e+02  3.60128e+02  7.12408e+00  7.22039e+00  6.77921e-01 -5.74516e+01  5.82810e+01  2.95316e+05 -3.13871e+05  1.34987e+03  0.00000e+00 -1.72056e+04 -2.95443e+03 -2.01600e+04  6.77924e-01  1.00000e+00  5.74393e+01  0.00000e+00  4.83035e+01 
 8.39664e-03  7.04884e-03  0.00000e+00  3.47944e+00  5.70560e-04  3.60295e+02  3.60129e+02  7.03445e+00  7.12502e+00  6.80403e-01 -6.16670e+01  6.08828e+01  3.27428e+05 -3.49567e+05  1.39509e+03  0.00000e+00 -2.07434e+04 -3.30070e+03 -2.40441e+04  6.80408e-01  1.00000e+00  6.16540e+01  0.00000e+00  5.41505e+01 
 8.59784e-03  7.28736e-03  0.00000e+00  3.47944e+00  5.44548e-04  3.60297e+02  3.60130e+02  6.89261e+00  6.97705e+00  6.82275e-01 -6.73224e+01  6.37924e+01  3.66048e+05 -3.93133e+05  1.43309e+03  0.00000e+00 -2.56519e+04 -3.76528e+03 -2.94172e+04  6.82283e-01  1.00000e+00  6.73084e+01  0.00000e+00  6.09713e+01 
 8.80092e-03  7.52587e-03  0.00000e+00  3.47944e+00  5.17332e-04  3.60300e+02  3.60131e+02  6.79527e+00  6.87379e+00  6.84954e-01 -7.48693e+01  6.71496e+01  4.13430e+05 -4.46137e+05  1.49123e+03  0.00000e+00 -3.12159e+04 -4.39053e+03 -3.56064e+04  6.84965e-01  1.00000e+00  7.48543e+01  0.00000e+00  6.97018e+01 
 9.00573e-03  7.76439e-03 -1.17014e-20  3.47944e+00  4.89285e-04  3.60307e+02  3.60132e+02  6.60399e+00  6.67578e+00  6.86941e-01 -8.57109e+01  7.10006e+01  4.72408e+05 -5.13923e+05  1.53173e+03  0.00000e+00 -3.99833e+04 -5.29927e+03 -4.52825e+04  6.86954e-01  1.00000e+00  8.56948e+01  0.00000e+00  8.01936e+01 
 9.21216e-03  8.00291e-03  0.00000e+00  3.47944e+00  4.59101e-04  3.60317e+02  3.60133e+02  6.49785e+00  6.56347e+00  6.89906e-01 -1.01543e+02  7.56699e+01  5.49897e+05 -6.01489e+05  1.61146e+03  0.00000e+00 -4.99807e+04 -6.66232e+03 -5.66430e+04  6.89922e-01  1.00000e+00  1.01525e+02  0.00000e+00  9.46120e+01 
 9.42012e-03  8.24144e-03  0.00000e+00  3.47944e+00  4.27491e-04  3.60334e+02  3.60135e+02  6.22509e+00  6.28274e+00  6.92135e-01 -1.26596e+02  8.12678e+01  6.52242e+05 -7.22415e+05  1.65747e+03  0.00000e+00 -6.85147e+04 -8.89204e+03 -7.74068e+04  6.92151e-01  1.00000e+00  1.26576e+02  0.00000e+00  1.12914e+02 
 9.62949e-03  8.47996e-03  0.00000e+00  3.47944e+00  3.92099e-04  3.60362e+02  3.60136e+02  6.09694e+00  6.14841e+00  6.95542e-01 -1.68868e+02  8.86050e+01  8.01934e+05 -8.97289e+05  1.77444e+03  0.00000e+00 -9.35803e+04 -1.28694e+04 -1.06450e+05  6.95555e-01  1.00000e+00  1.68846e+02  0.00000e+00  1.40789e+02 
 9.84019e-03  8.71849e-03  0.00000e+00  3.47944e+00  3.53602e-04  3.60411e+02  3.60138e+02  5.69952e+00  5.74201e+00  6.98135e-01 -2.48902e+02  9.82554e+01  1.02817e+06 -1.17247e+06  1.83496e+03  0.00000e+00 -1.42472e+05 -2.09593e+04 -1.63431e+05  6.98141e-01  1.00000e+00  2.48877e+02  0.00000e+00  1.81709e+02 
 1.00521e-02  8.95702e-03  0.00000e+00  3.47944e+00  3.07895e-04  3.60507e+02  3.60139e+02  5.48827e+00  5.52556e+00  7.02608e-01 -4.29113e+02  1.12844e+02  1.43817e+06 -1.65145e+06  2.02453e+03  0.00000e+00 -2.11254e+05 -4.12433e+04 -2.52497e+05  7.02593e-01  1.00000e+00  4.29083e+02  0.00000e+00  2.60134e+02 
 1.02653e-02  9.19555e-03  0.00000e+00  3.47944e+00  2.54028e-04  3.60735e+02  3.60142e+02  4.82130e+00  4.85018e+00  7.05409e-01 -9.66033e+02  1.36780e+02  2.32641e+06 -2.61682e+06  2.13627e+03  0.00000e+00 -2.88274e+05 -1.12098e+05 -4.00373e+05  7.05366e-01  1.00000e+00  9.65996e+02  0.00000e+00  4.32062e+02 
 1.04795e-02  9.43408e-03  0.00000e+00  3.47944e+00  1.92118e-04  3.61537e+02  3.60145e+02  4.10087e+00  4.12195e+00  7.12432e-01 -8.10111e+03  1.80866e+02  4.95923e+06 -4.14246e+06  2.44095e+03  1.19235e+06  2.01156e+06 -1.99305e+06  1.85178e+04  7.12392e-01  1.00000e+00  8.10106e+03  4.50579e+03  1.10136e+03 
