# Code_Saturne plot output (1D profile)
#
# Iteration output: 2782
# Time output:      2.30062e+01
#
#COLUMN_TITLES: Distance | X | Y | Z | diameter_Field2 | temp_Field1 | temp_Field2 | Velocity_Field1[Z] | Velocity_Field2[Z] | vol_f_Field2 | mass_trans_Field1 | Xd_Field2 | BK | COAL | COMP | NUCL | W1 | MT | SMBR | ALPBB | CONDNUM | GAMA | GAMANUC | epsilon_Field1
 4.56474e-03  1.39645e-04  0.00000e+00  3.47944e+00  5.11268e-05  3.59279e+02  3.60049e+02  4.51514e+00  4.52226e+00  2.02079e-02  1.16505e+02  6.81682e+02  2.34764e-16 -4.10168e+05  3.69472e+03  0.00000e+00 -4.06473e+05  9.94985e+05  5.88512e+05  2.02030e-02  1.00000e+00 -1.16505e+02  0.00000e+00  2.74801e-01 
 4.57812e-03  3.76525e-04  4.25872e-21  3.47944e+00  6.54948e-05  3.59282e+02  3.60049e+02  4.51480e+00  4.52505e+00  2.08340e-02  8.49074e+01  5.32137e+02  3.88981e-08 -2.78544e+05  2.88061e+03  0.00000e+00 -2.75663e+05  5.49027e+05  2.73364e+05  2.08291e-02  1.00000e+00 -8.49073e+01  0.00000e+00  2.78131e-01 
 4.60371e-03  6.13858e-04  0.00000e+00  3.47944e+00  7.76443e-05  3.59288e+02  3.60049e+02  4.51366e+00  4.52655e+00  2.19745e-02  7.08225e+01  4.48870e+02  3.58848e-04 -2.21416e+05  2.42961e+03  0.00000e+00 -2.18986e+05  3.66231e+05  1.47245e+05  2.19697e-02  1.00000e+00 -7.08223e+01  0.00000e+00  2.84659e-01 
 4.64138e-03  8.51483e-04  0.00000e+00  3.47944e+00  8.79003e-05  3.59299e+02  3.60049e+02  4.51195e+00  4.52702e+00  2.36169e-02  6.40222e+01  3.96497e+02  6.83992e-02 -1.94594e+05  2.14603e+03  0.00000e+00 -1.92448e+05  2.72091e+05  7.96431e+04  2.36122e-02  1.00000e+00 -6.40220e+01  0.00000e+00  2.94501e-01 
 4.69084e-03  1.08931e-03  0.00000e+00  3.47944e+00  9.70678e-05  3.59313e+02  3.60049e+02  4.50963e+00  4.52662e+00  2.57792e-02  6.05742e+01  3.59050e+02  2.33421e+00 -1.81778e+05  1.94320e+03  0.00000e+00 -1.79832e+05  2.13563e+05  3.37307e+04  2.57746e-02  1.00000e+00 -6.05741e+01  0.00000e+00  3.07863e-01 
 4.75174e-03  1.32727e-03  1.05001e-20  3.47944e+00  1.05541e-04  3.59331e+02  3.60049e+02  4.50669e+00  4.52542e+00  2.85013e-02  5.90074e+01  3.30225e+02  3.10314e+01 -1.77130e+05  1.78697e+03  0.00000e+00 -1.75312e+05  1.73058e+05 -2.25412e+03  2.84967e-02  1.00000e+00 -5.90073e+01  0.00000e+00  3.25036e-01 
 4.82366e-03  1.56534e-03  0.00000e+00  3.47944e+00  1.13497e-04  3.59353e+02  3.60049e+02  4.50312e+00  4.52346e+00  3.18328e-02  5.86455e+01  3.07076e+02  2.26993e+02 -1.78181e+05  1.66133e+03  0.00000e+00 -1.76292e+05  1.43196e+05 -3.30958e+04  3.18283e-02  1.00000e+00 -5.86454e+01  0.00000e+00  3.46421e-01 
 4.90611e-03  1.80349e-03  8.81027e-21  3.47944e+00  1.20982e-04  3.59379e+02  3.60049e+02  4.49889e+00  4.52072e+00  3.58353e-02  5.91487e+01  2.88078e+02  1.09183e+03 -1.83895e+05  1.55803e+03  0.00000e+00 -1.81245e+05  1.20353e+05 -6.08914e+04  3.58309e-02  1.00000e+00 -5.91486e+01  0.00000e+00  3.72530e-01 
 4.99859e-03  2.04170e-03  0.00000e+00  3.47944e+00  1.27942e-04  3.59408e+02  3.60049e+02  4.49396e+00  4.51713e+00  4.05777e-02  6.03410e+01  2.72406e+02  3.83143e+03 -1.94006e+05  1.47255e+03  0.00000e+00 -1.88702e+05  1.02529e+05 -8.61730e+04  4.05732e-02  1.00000e+00 -6.03408e+01  0.00000e+00  4.04014e-01 
 5.10055e-03  2.27996e-03  7.58893e-21  3.47944e+00  1.34251e-04  3.59440e+02  3.60049e+02  4.48830e+00  4.51263e+00  4.61355e-02  6.21393e+01  2.59605e+02  1.05026e+04 -2.08775e+05  1.40243e+03  0.00000e+00 -1.96870e+05  8.84996e+04 -1.08370e+05  4.61306e-02  1.00000e+00 -6.21391e+01  0.00000e+00  4.41671e-01 
 5.21143e-03  2.51826e-03  7.09702e-21  3.47944e+00  1.39750e-04  3.59475e+02  3.60049e+02  4.48183e+00  4.50711e+00  5.25876e-02  6.45055e+01  2.49390e+02  2.36598e+04 -2.28864e+05  1.34610e+03  0.00000e+00 -2.03859e+05  7.74263e+04 -1.26432e+05  5.25818e-02  1.00000e+00 -6.45053e+01  0.00000e+00  4.86478e-01 
 5.33068e-03  2.75659e-03  1.33300e-20  3.47944e+00  1.44298e-04  3.59512e+02  3.60049e+02  4.47448e+00  4.50047e+00  6.00130e-02  6.74074e+01  2.41529e+02  4.56606e+04 -2.55248e+05  1.30225e+03  0.00000e+00 -2.08285e+05  6.86639e+04 -1.39621e+05  6.00059e-02  1.00000e+00 -6.74072e+01  0.00000e+00  5.39609e-01 
 5.45775e-03  2.99495e-03  1.25651e-20  3.47944e+00  1.47826e-04  3.59550e+02  3.60049e+02  4.46616e+00  4.49263e+00  6.84846e-02  7.02488e+01  2.35765e+02  7.81993e+04 -2.89111e+05  1.26946e+03  0.00000e+00 -2.09642e+05  6.12100e+04 -1.48432e+05  6.84758e-02  1.00000e+00 -7.02485e+01  0.00000e+00  6.02471e-01 
 5.59212e-03  3.23333e-03  0.00000e+00  3.47944e+00  1.50346e-04  3.59590e+02  3.60049e+02  4.45677e+00  4.48346e+00  7.80628e-02  7.30510e+01  2.31814e+02  1.22345e+05 -3.31808e+05  1.24616e+03  0.00000e+00 -2.08217e+05  5.49057e+04 -1.53311e+05  7.80526e-02  1.00000e+00 -7.30507e+01  0.00000e+00  6.76736e-01 
 5.73326e-03  3.47172e-03  0.00000e+00  3.47944e+00  1.51939e-04  3.59630e+02  3.60049e+02  4.44616e+00  4.47287e+00  8.87857e-02  7.58333e+01  2.29384e+02  1.78890e+05 -3.84806e+05  1.23069e+03  0.00000e+00 -2.04685e+05  4.95876e+04 -1.55098e+05  8.87744e-02  1.00000e+00 -7.58330e+01  0.00000e+00  7.64388e-01 
 5.88069e-03  3.71014e-03 -5.35987e-21  3.47944e+00  1.52737e-04  3.59670e+02  3.60049e+02  4.43417e+00  4.46064e+00  1.00676e-01  7.83668e+01  2.28185e+02  2.48707e+05 -4.49682e+05  1.22146e+03  0.00000e+00 -1.99753e+05  4.49551e+04 -1.54798e+05  1.00665e-01  1.00000e+00 -7.83664e+01  0.00000e+00  8.67744e-01 
 6.03395e-03  3.94857e-03  5.10973e-21  3.47944e+00  1.52892e-04  3.59710e+02  3.60049e+02  4.42062e+00  4.44671e+00  1.13715e-01  8.04032e+01  2.27954e+02  3.32891e+05 -5.27983e+05  1.21693e+03  0.00000e+00 -1.93875e+05  4.07926e+04 -1.53082e+05  1.13704e-01  1.00000e+00 -8.04028e+01  0.00000e+00  9.89531e-01 
 6.19261e-03  4.18701e-03  0.00000e+00  3.47944e+00  1.52552e-04  3.59749e+02  3.60049e+02  4.40528e+00  4.43087e+00  1.27865e-01  8.17011e+01  2.28461e+02  4.32669e+05 -6.21300e+05  1.21582e+03  0.00000e+00 -1.87415e+05  3.69452e+04 -1.50470e+05  1.27855e-01  1.00000e+00 -8.17006e+01  0.00000e+00  1.13286e+00 
 6.35626e-03  4.42546e-03  0.00000e+00  3.47944e+00  1.51852e-04  3.59786e+02  3.60049e+02  4.38791e+00  4.41290e+00  1.43027e-01  8.20329e+01  2.29515e+02  5.49316e+05 -7.31000e+05  1.21701e+03  0.00000e+00 -1.80467e+05  3.33156e+04 -1.47151e+05  1.43017e-01  1.00000e+00 -8.20324e+01  0.00000e+00  1.30136e+00 
 6.52453e-03  4.66392e-03 -8.96437e-21  3.47944e+00  1.50906e-04  3.59821e+02  3.60049e+02  4.36821e+00  4.39254e+00  1.59101e-01  8.12387e+01  2.30954e+02  6.83874e+05 -8.58378e+05  1.21952e+03  0.00000e+00 -1.73285e+05  2.98461e+04 -1.43438e+05  1.59088e-01  1.00000e+00 -8.12382e+01  0.00000e+00  1.49900e+00 
 6.69707e-03  4.90238e-03  1.72236e-20  3.47944e+00  1.49808e-04  3.59854e+02  3.60049e+02  4.34588e+00  4.36949e+00  1.75908e-01  7.92126e+01  2.32647e+02  8.37189e+05 -1.00427e+06  1.22248e+03  0.00000e+00 -1.65855e+05  2.65136e+04 -1.39341e+05  1.75898e-01  1.00000e+00 -7.92120e+01  0.00000e+00  1.73041e+00 
 6.87356e-03  5.14086e-03  8.28595e-21  3.47944e+00  1.48639e-04  3.59885e+02  3.60049e+02  4.32059e+00  4.34344e+00  1.93321e-01  7.59461e+01  2.34477e+02  1.00948e+06 -1.16934e+06  1.22527e+03  0.00000e+00 -1.58633e+05  2.33123e+04 -1.35321e+05  1.93312e-01  1.00000e+00 -7.59455e+01  0.00000e+00  2.00043e+00 
 7.05370e-03  5.37934e-03 -1.59677e-20  3.47944e+00  1.47451e-04  3.59913e+02  3.60049e+02  4.29202e+00  4.31408e+00  2.11079e-01  7.14882e+01  2.36367e+02  1.20078e+06 -1.35336e+06  1.22728e+03  0.00000e+00 -1.51355e+05  2.02594e+04 -1.31095e+05  2.11072e-01  1.00000e+00 -7.14875e+01  0.00000e+00  2.31473e+00 
 7.23722e-03  5.61783e-03  0.00000e+00  3.47944e+00  1.46292e-04  3.59937e+02  3.60049e+02  4.25983e+00  4.28108e+00  2.29058e-01  6.59998e+01  2.38240e+02  1.41021e+06 -1.55625e+06  1.22803e+03  0.00000e+00 -1.44821e+05  1.73722e+04 -1.27448e+05  2.29053e-01  1.00000e+00 -6.59991e+01  0.00000e+00  2.67901e+00 
 7.42387e-03  5.85632e-03  0.00000e+00  3.47944e+00  1.45175e-04  3.59960e+02  3.60049e+02  4.22373e+00  4.24417e+00  2.46984e-01  5.96775e+01  2.40074e+02  1.63728e+06 -1.77711e+06  1.22726e+03  0.00000e+00 -1.38602e+05  1.46799e+04 -1.23922e+05  2.46981e-01  1.00000e+00 -5.96767e+01  0.00000e+00  3.10043e+00 
 7.61342e-03  6.09482e-03  0.00000e+00  3.47944e+00  1.44116e-04  3.59979e+02  3.60049e+02  4.18340e+00  4.20302e+00  2.64771e-01  5.27817e+01  2.41839e+02  1.88056e+06 -2.01561e+06  1.22475e+03  0.00000e+00 -1.33824e+05  1.22002e+04 -1.21623e+05  2.64771e-01  1.00000e+00 -5.27809e+01  0.00000e+00  3.58610e+00 
 7.80566e-03  6.33332e-03  0.00000e+00  3.47944e+00  1.43085e-04  3.59996e+02  3.60050e+02  4.13863e+00  4.15743e+00  2.82177e-01  4.55702e+01  2.43581e+02  2.14032e+06 -2.27140e+06  1.22058e+03  0.00000e+00 -1.29863e+05  9.95457e+03 -1.19909e+05  2.82180e-01  1.00000e+00 -4.55693e+01  0.00000e+00  4.14639e+00 
 8.00039e-03  6.57182e-03  0.00000e+00  3.47944e+00  1.42064e-04  3.60010e+02  3.60050e+02  4.08902e+00  4.10699e+00  2.99175e-01  3.82969e+01  2.45334e+02  2.41606e+06 -2.54538e+06  1.21483e+03  0.00000e+00 -1.28111e+05  7.94706e+03 -1.20164e+05  2.99180e-01  1.00000e+00 -3.82959e+01  0.00000e+00  4.79203e+00 
 8.19744e-03  6.81033e-03  1.31016e-20  3.47944e+00  1.40979e-04  3.60023e+02  3.60050e+02  4.03444e+00  4.05159e+00  3.15608e-01  3.11787e+01  2.47221e+02  2.71096e+06 -2.84021e+06  1.20792e+03  0.00000e+00 -1.28039e+05  6.18016e+03 -1.21859e+05  3.15614e-01  1.00000e+00 -3.11778e+01  0.00000e+00  5.54113e+00 
 8.39664e-03  7.04884e-03  0.00000e+00  3.47944e+00  1.39775e-04  3.60033e+02  3.60050e+02  3.97414e+00  3.99044e+00  3.31495e-01  2.43745e+01  2.49352e+02  3.02792e+06 -3.16046e+06  1.20019e+03  0.00000e+00 -1.31341e+05  4.63944e+03 -1.26701e+05  3.31502e-01  1.00000e+00 -2.43735e+01  0.00000e+00  6.41397e+00 
 8.59784e-03  7.28736e-03  0.00000e+00  3.47944e+00  1.38337e-04  3.60042e+02  3.60050e+02  3.90801e+00  3.92345e+00  3.46790e-01  1.79887e+01  2.51946e+02  3.37642e+06 -3.51565e+06  1.19235e+03  0.00000e+00 -1.38034e+05  3.30694e+03 -1.34727e+05  3.46795e-01  1.00000e+00 -1.79877e+01  0.00000e+00  7.44732e+00 
 8.80092e-03  7.52587e-03  0.00000e+00  3.47944e+00  1.36561e-04  3.60049e+02  3.60050e+02  3.83459e+00  3.84913e+00  3.61548e-01  1.20408e+01  2.55223e+02  3.76708e+06 -3.91886e+06  1.18491e+03  0.00000e+00 -1.50592e+05  2.15072e+03 -1.48442e+05  3.61550e-01  1.00000e+00 -1.20398e+01  0.00000e+00  8.68644e+00 
 9.00573e-03  7.76439e-03 -1.17014e-20  3.47944e+00  1.34283e-04  3.60055e+02  3.60051e+02  3.75318e+00  3.76677e+00  3.75844e-01  6.47747e+00  2.59556e+02  4.22251e+06 -4.39458e+06  1.17896e+03  0.00000e+00 -1.70888e+05  1.13180e+03 -1.69756e+05  3.75842e-01  1.00000e+00 -6.47636e+00  0.00000e+00  1.02147e+01 
 9.21216e-03  8.00291e-03  0.00000e+00  3.47944e+00  1.31318e-04  3.60060e+02  3.60051e+02  3.66201e+00  3.67457e+00  3.89750e-01  1.12039e+00  2.65416e+02  4.77472e+06 -4.97898e+06  1.17520e+03  0.00000e+00 -2.03092e+05  1.92881e+02 -2.02899e+05  3.89742e-01  1.00000e+00 -1.11925e+00  0.00000e+00  1.21543e+01 
 9.42012e-03  8.24144e-03  0.00000e+00  3.47944e+00  1.27428e-04  3.60064e+02  3.60051e+02  3.55651e+00  3.56796e+00  4.03530e-01 -9.37467e+00  2.73521e+02  5.48057e+06 -5.73761e+06  1.17531e+03  0.00000e+00 -2.55856e+05 -1.60832e+03 -2.57464e+05  4.03514e-01  1.00000e+00  9.37627e+00  0.00000e+00  1.47271e+01 
 9.62949e-03  8.47996e-03  0.00000e+00  3.47944e+00  1.22207e-04  3.60069e+02  3.60052e+02  3.43727e+00  3.44749e+00  4.17069e-01 -2.46293e+01  2.85207e+02  6.45516e+06 -6.79210e+06  1.18156e+03  0.00000e+00 -3.35756e+05 -4.26250e+03 -3.40018e+05  4.17049e-01  1.00000e+00  2.46310e+01  0.00000e+00  1.83619e+01 
 9.84019e-03  8.71849e-03  0.00000e+00  3.47944e+00  1.15223e-04  3.60076e+02  3.60052e+02  3.28503e+00  3.29389e+00  4.30823e-01 -5.28354e+01  3.02499e+02  7.90977e+06 -8.38237e+06  1.19591e+03  0.00000e+00 -4.71412e+05 -9.38851e+03 -4.80800e+05  4.30803e-01  1.00000e+00  5.28371e+01  0.00000e+00  2.39099e+01 
 1.00521e-02  8.95702e-03  0.00000e+00  3.47944e+00  1.05634e-04  3.60093e+02  3.60053e+02  3.10554e+00  3.11282e+00  4.44652e-01 -1.27102e+02  3.29960e+02  1.04430e+07 -1.11136e+07  1.22493e+03  0.00000e+00 -6.69370e+05 -2.38692e+04 -6.93239e+05  4.44638e-01  1.00000e+00  1.27104e+02  0.00000e+00  3.37968e+01 
 1.02653e-02  9.19555e-03  0.00000e+00  3.47944e+00  9.31394e-05  3.60145e+02  3.60053e+02  2.82639e+00  2.83168e+00  4.59574e-01 -4.15828e+02  3.74230e+02  1.56363e+07 -1.64715e+07  1.25509e+03  0.00000e+00 -8.33945e+05 -8.56929e+04 -9.19638e+05  4.59577e-01  1.00000e+00  4.15830e+02  0.00000e+00  5.55989e+01 
 1.04795e-02  9.43408e-03  0.00000e+00  3.47944e+00  7.92456e-05  3.60427e+02  3.60054e+02  2.38783e+00  2.38962e+00  4.79406e-01 -5.68867e+03  4.39850e+02  3.02568e+07 -2.88392e+07  1.29238e+03  1.79535e+06  3.21423e+06 -3.32976e+06 -1.15536e+05  4.79427e-01  1.00000e+00  5.68867e+03  3.28402e+03  1.37647e+02 
