# Code_Saturne plot output (1D profile)
#
# Iteration output: 2246
# Time output:      2.30002e+01
#
#COLUMN_TITLES: Distance | X | Y | Z | diameter_Field2 | temp_Field1 | temp_Field2 | Velocity_Field1[Z] | Velocity_Field2[Z] | vol_f_Field2 | mass_trans_Field1 | Xd_Field2 | BK | COAL | COMP | NUCL | W1 | MT | SMBR | ALPBB | CONDNUM | GAMA | GAMANUC | epsilon_Field1
 4.56474e-03  1.39645e-04  0.00000e+00  3.47944e+00  1.36640e-04  3.59288e+02  3.60051e+02  4.51788e+00  4.54387e+00  4.74263e-02  7.66447e+01  2.55054e+02  1.33895e+04 -6.25135e+05  1.44301e+03  0.00000e+00 -6.10302e+05  8.11947e+04 -5.29108e+05  4.74305e-02  1.00000e+00 -7.66371e+01  0.00000e+00  4.54035e-01 
 4.57812e-03  3.76525e-04  4.25872e-21  3.47944e+00  1.58566e-04  3.59291e+02  3.60051e+02  4.51730e+00  4.54835e+00  4.80679e-02  6.35935e+01  2.19786e+02  4.52193e+04 -4.92032e+05  1.24379e+03  0.00000e+00 -4.45569e+05  5.72787e+04 -3.88291e+05  4.80707e-02  1.00000e+00 -6.35871e+01  0.00000e+00  4.59318e-01 
 4.60371e-03  6.13858e-04  0.00000e+00  3.47944e+00  1.74562e-04  3.59296e+02  3.60051e+02  4.51574e+00  4.55038e+00  4.93080e-02  5.72853e+01  1.99645e+02  8.36330e+04 -4.30570e+05  1.13015e+03  0.00000e+00 -3.45807e+05  4.56907e+04 -3.00116e+05  4.93102e-02  1.00000e+00 -5.72795e+01  0.00000e+00  4.69704e-01 
 4.64138e-03  8.51483e-04  0.00000e+00  3.47944e+00  1.85538e-04  3.59305e+02  3.60051e+02  4.51345e+00  4.55044e+00  5.11484e-02  5.46048e+01  1.87834e+02  1.19656e+05 -4.06093e+05  1.06328e+03  0.00000e+00 -2.85373e+05  3.95025e+04 -2.45871e+05  5.11500e-02  1.00000e+00 -5.45992e+01  0.00000e+00  4.85394e-01 
 4.69084e-03  1.08931e-03  0.00000e+00  3.47944e+00  1.93375e-04  3.59316e+02  3.60051e+02  4.51039e+00  4.54892e+00  5.36142e-02  5.38786e+01  1.80222e+02  1.54109e+05 -4.01568e+05  1.01989e+03  0.00000e+00 -2.46439e+05  3.56783e+04 -2.10761e+05  5.36148e-02  1.00000e+00 -5.38730e+01  0.00000e+00  5.06704e-01 
 4.75174e-03  1.32727e-03  1.05001e-20  3.47944e+00  1.99261e-04  3.59330e+02  3.60051e+02  4.50654e+00  4.54610e+00  5.67405e-02  5.43695e+01  1.74898e+02  1.89259e+05 -4.10077e+05  9.89243e+02  0.00000e+00 -2.19829e+05  3.30157e+04 -1.86813e+05  5.67397e-02  1.00000e+00 -5.43638e+01  0.00000e+00  5.34067e-01 
 4.82366e-03  1.56534e-03  0.00000e+00  3.47944e+00  2.03945e-04  3.59347e+02  3.60051e+02  4.50188e+00  4.54215e+00  6.05675e-02  5.56990e+01  1.70881e+02  2.27072e+05 -4.28504e+05  9.65840e+02  0.00000e+00 -2.00466e+05  3.09593e+04 -1.69507e+05  6.05645e-02  1.00000e+00 -5.56930e+01  0.00000e+00  5.68046e-01 
 4.90611e-03  1.80349e-03  8.81027e-21  3.47944e+00  2.07923e-04  3.59366e+02  3.60051e+02  4.49638e+00  4.53715e+00  6.51365e-02  5.74367e+01  1.67613e+02  2.69028e+05 -4.55334e+05  9.46556e+02  0.00000e+00 -1.85359e+05  2.91189e+04 -1.56240e+05  6.51307e-02  1.00000e+00 -5.74303e+01  0.00000e+00  6.09346e-01 
 4.99859e-03  2.04170e-03  0.00000e+00  3.47944e+00  2.11540e-04  3.59388e+02  3.60051e+02  4.48997e+00  4.53114e+00  7.04914e-02  5.93834e+01  1.64746e+02  3.16174e+05 -4.89729e+05  9.29432e+02  0.00000e+00 -1.72625e+05  2.73442e+04 -1.45281e+05  7.04796e-02  1.00000e+00 -5.93766e+01  0.00000e+00  6.58818e-01 
 5.10055e-03  2.27996e-03  7.58893e-21  3.47944e+00  2.15057e-04  3.59412e+02  3.60051e+02  4.48260e+00  4.52412e+00  7.66934e-02  6.15608e+01  1.62052e+02  3.69050e+05 -5.31504e+05  9.12983e+02  0.00000e+00 -1.61541e+05  2.56266e+04 -1.35914e+05  7.66879e-02  1.00000e+00 -6.15535e+01  0.00000e+00  7.17482e-01 
 5.21143e-03  2.51826e-03  7.09702e-21  3.47944e+00  2.18685e-04  3.59438e+02  3.60051e+02  4.47418e+00  4.51604e+00  8.37598e-02  6.37801e+01  1.59364e+02  4.27869e+05 -5.79846e+05  8.96470e+02  0.00000e+00 -1.51081e+05  2.39060e+04 -1.27175e+05  8.37583e-02  1.00000e+00 -6.37723e+01  0.00000e+00  7.86531e-01 
 5.33068e-03  2.75659e-03  1.33300e-20  3.47944e+00  2.22607e-04  3.59465e+02  3.60051e+02  4.46459e+00  4.50684e+00  9.17127e-02  6.58841e+01  1.56556e+02  4.92284e+05 -6.34076e+05  8.79176e+02  0.00000e+00 -1.40913e+05  2.21550e+04 -1.18758e+05  9.17142e-02  1.00000e+00 -6.58757e+01  0.00000e+00  8.67354e-01 
 5.45775e-03  2.99495e-03  1.25651e-20  3.47944e+00  2.26997e-04  3.59494e+02  3.60051e+02  4.45370e+00  4.49635e+00  1.00567e-01  6.77086e+01  1.53529e+02  5.61398e+05 -6.93209e+05  8.60518e+02  0.00000e+00 -1.30950e+05  2.03619e+04 -1.10588e+05  1.00570e-01  1.00000e+00 -6.76995e+01  0.00000e+00  9.61528e-01 
 5.59212e-03  3.23333e-03  0.00000e+00  3.47944e+00  2.32016e-04  3.59523e+02  3.60051e+02  4.44136e+00  4.48451e+00  1.10304e-01  6.90899e+01  1.50208e+02  6.33757e+05 -7.55781e+05  8.40028e+02  0.00000e+00 -1.21184e+05  1.85330e+04 -1.02651e+05  1.10309e-01  1.00000e+00 -6.90801e+01  0.00000e+00  1.07086e+00 
 5.73326e-03  3.47172e-03  0.00000e+00  3.47944e+00  2.37816e-04  3.59553e+02  3.60051e+02  4.42737e+00  4.47116e+00  1.20896e-01  6.98787e+01  1.46544e+02  7.07336e+05 -8.19982e+05  8.17484e+02  0.00000e+00 -1.11828e+05  1.66850e+04 -9.51427e+04  1.20902e-01  1.00000e+00 -6.98683e+01  0.00000e+00  1.19732e+00 
 5.88069e-03  3.71014e-03 -5.35987e-21  3.47944e+00  2.44522e-04  3.59583e+02  3.60051e+02  4.41154e+00  4.45609e+00  1.32260e-01  6.99422e+01  1.42525e+02  7.79752e+05 -8.83524e+05  7.92760e+02  0.00000e+00 -1.02980e+05  1.48463e+04 -8.81337e+04  1.32267e-01  1.00000e+00 -6.99312e+01  0.00000e+00  1.34313e+00 
 6.03395e-03  3.94857e-03  5.10973e-21  3.47944e+00  2.52231e-04  3.59614e+02  3.60051e+02  4.39364e+00  4.43911e+00  1.44317e-01  6.92058e+01  1.38170e+02  8.48383e+05 -9.44150e+05  7.65955e+02  0.00000e+00 -9.50011e+04  1.30511e+04 -8.19500e+04  1.44325e-01  1.00000e+00 -6.91941e+01  0.00000e+00  1.51056e+00 
 6.19261e-03  4.18701e-03  0.00000e+00  3.47944e+00  2.60979e-04  3.59644e+02  3.60051e+02  4.37344e+00  4.41997e+00  1.56911e-01  6.76354e+01  1.33538e+02  9.10882e+05 -9.99486e+05  7.37489e+02  0.00000e+00 -8.78668e+04  1.13379e+04 -7.65289e+04  1.56919e-01  1.00000e+00 -6.76232e+01  0.00000e+00  1.70215e+00 
 6.35626e-03  4.42546e-03  0.00000e+00  3.47944e+00  2.70745e-04  3.59673e+02  3.60051e+02  4.35071e+00  4.39843e+00  1.69925e-01  6.52790e+01  1.28722e+02  9.65249e+05 -1.04791e+06  7.07821e+02  0.00000e+00 -8.19480e+04  9.74041e+03 -7.22076e+04  1.69932e-01  1.00000e+00 -6.52664e+01  0.00000e+00  1.92028e+00 
 6.52453e-03  4.66392e-03 -8.96437e-21  3.47944e+00  2.81393e-04  3.59703e+02  3.60051e+02  4.32527e+00  4.37429e+00  1.83129e-01  6.22212e+01  1.23851e+02  1.01059e+06 -1.08815e+06  6.77664e+02  0.00000e+00 -7.68802e+04  8.28866e+03 -6.85915e+04  1.83136e-01  1.00000e+00 -6.22083e+01  0.00000e+00  2.16772e+00 
 6.69707e-03  4.90238e-03  1.72236e-20  3.47944e+00  2.92723e-04  3.59731e+02  3.60051e+02  4.29694e+00  4.34734e+00  1.96419e-01  5.86180e+01  1.19058e+02  1.04670e+06 -1.12042e+06  6.47795e+02  0.00000e+00 -7.30800e+04  6.99842e+03 -6.60815e+04  1.96426e-01  1.00000e+00 -5.86048e+01  0.00000e+00  2.44694e+00 
 6.87356e-03  5.14086e-03  8.28595e-21  3.47944e+00  3.04385e-04  3.59759e+02  3.60051e+02  4.26568e+00  4.31745e+00  2.09534e-01  5.46201e+01  1.14496e+02  1.07499e+06 -1.14539e+06  6.19046e+02  0.00000e+00 -6.97806e+04  5.87867e+03 -6.39019e+04  2.09540e-01  1.00000e+00 -5.46066e+01  0.00000e+00  2.76138e+00 
 7.05370e-03  5.37934e-03 -1.59677e-20  3.47944e+00  3.16012e-04  3.59787e+02  3.60051e+02  4.23137e+00  4.28446e+00  2.22458e-01  5.04056e+01  1.10284e+02  1.09708e+06 -1.16532e+06  5.92073e+02  0.00000e+00 -6.76488e+04  4.92180e+03 -6.27270e+04  2.22465e-01  1.00000e+00 -5.03920e+01  0.00000e+00  3.11407e+00 
 7.23722e-03  5.61783e-03  0.00000e+00  3.47944e+00  3.27085e-04  3.59814e+02  3.60051e+02  4.19404e+00  4.24832e+00  2.34935e-01  4.60998e+01  1.06550e+02  1.11626e+06 -1.18245e+06  5.67516e+02  0.00000e+00 -6.56283e+04  4.11792e+03 -6.15103e+04  2.34941e-01  1.00000e+00 -4.60860e+01  0.00000e+00  3.51062e+00 
 7.42387e-03  5.85632e-03  0.00000e+00  3.47944e+00  3.37210e-04  3.59840e+02  3.60051e+02  4.15349e+00  4.20877e+00  2.47089e-01  4.18115e+01  1.03352e+02  1.13470e+06 -1.20008e+06  5.45679e+02  0.00000e+00 -6.48345e+04  3.44443e+03 -6.13900e+04  2.47095e-01  1.00000e+00 -4.17976e+01  0.00000e+00  3.95577e+00 
 7.61342e-03  6.09482e-03  0.00000e+00  3.47944e+00  3.45858e-04  3.59866e+02  3.60051e+02  4.10978e+00  4.16576e+00  2.58660e-01  3.75810e+01  1.00768e+02  1.15645e+06 -1.22090e+06  5.26857e+02  0.00000e+00 -6.39199e+04  2.88337e+03 -6.10365e+04  2.58666e-01  1.00000e+00 -3.75669e+01  0.00000e+00  4.46001e+00 
 7.80566e-03  6.33332e-03  0.00000e+00  3.47944e+00  3.52802e-04  3.59891e+02  3.60052e+02  4.06236e+00  4.11871e+00  2.69924e-01  3.34178e+01  9.87847e+01  1.18293e+06 -1.24806e+06  5.10951e+02  0.00000e+00 -6.46140e+04  2.40848e+03 -6.22055e+04  2.69931e-01  1.00000e+00 -3.34034e+01  0.00000e+00  5.03127e+00 
 8.00039e-03  6.57182e-03  0.00000e+00  3.47944e+00  3.57611e-04  3.59916e+02  3.60052e+02  4.01137e+00  4.06771e+00  2.80576e-01  2.92820e+01  9.74568e+01  1.21861e+06 -1.28426e+06  4.98023e+02  0.00000e+00 -6.51467e+04  2.00286e+03 -6.31438e+04  2.80582e-01  1.00000e+00 -2.92673e+01  0.00000e+00  5.68955e+00 
 8.19744e-03  6.81033e-03  1.31016e-20  3.47944e+00  3.60304e-04  3.59941e+02  3.60052e+02  3.95556e+00  4.01144e+00  2.91031e-01  2.50989e+01  9.67288e+01  1.26389e+06 -1.33240e+06  4.87731e+02  0.00000e+00 -6.80169e+04  1.64254e+03 -6.63744e+04  2.91038e-01  1.00000e+00 -2.50838e+01  0.00000e+00  6.44800e+00 
 8.39664e-03  7.04884e-03  0.00000e+00  3.47944e+00  3.60493e-04  3.59966e+02  3.60052e+02  3.89562e+00  3.95064e+00  3.00899e-01  2.07669e+01  9.66784e+01  1.32490e+06 -1.39626e+06  4.80141e+02  0.00000e+00 -7.08842e+04  1.31360e+03 -6.95706e+04  3.00905e-01  1.00000e+00 -2.07513e+01  0.00000e+00  7.34640e+00 
 8.59784e-03  7.28736e-03  0.00000e+00  3.47944e+00  3.58389e-04  3.59991e+02  3.60052e+02  3.82848e+00  3.88216e+00  3.10719e-01  1.61238e+01  9.72466e+01  1.40173e+06 -1.47957e+06  4.74835e+02  0.00000e+00 -7.73665e+04  9.93220e+02 -7.63732e+04  3.10726e-01  1.00000e+00 -1.61076e+01  0.00000e+00  8.40815e+00 
 8.80092e-03  7.52587e-03  0.00000e+00  3.47944e+00  3.53499e-04  3.60016e+02  3.60053e+02  3.75697e+00  3.80889e+00  3.20024e-01  1.09714e+01  9.85923e+01  1.50514e+06 -1.59012e+06  4.72115e+02  0.00000e+00 -8.45071e+04  6.64900e+02 -8.38422e+04  3.20030e-01  1.00000e+00 -1.09543e+01  0.00000e+00  9.71984e+00 
 9.00573e-03  7.76439e-03 -1.17014e-20  3.47944e+00  3.46121e-04  3.60043e+02  3.60053e+02  3.67287e+00  3.72257e+00  3.29426e-01  4.96791e+00  1.00695e+02  1.63699e+06 -1.73523e+06  4.71502e+02  0.00000e+00 -9.77689e+04  2.98091e+02 -9.74708e+04  3.29433e-01  1.00000e+00 -4.94981e+00  0.00000e+00  1.13316e+01 
 9.21216e-03  8.00291e-03  0.00000e+00  3.47944e+00  3.35489e-04  3.60072e+02  3.60053e+02  3.58545e+00  3.63245e+00  3.38454e-01 -5.43170e+00  1.03886e+02  1.82017e+06 -1.93432e+06  4.73932e+02  0.00000e+00 -1.13685e+05 -3.30831e+02 -1.14016e+05  3.38460e-01  1.00000e+00  5.47062e+00  0.00000e+00  1.34605e+01 
 9.42012e-03  8.24144e-03  0.00000e+00  3.47944e+00  3.21866e-04  3.60103e+02  3.60054e+02  3.47296e+00  3.51690e+00  3.47737e-01 -2.72366e+01  1.08284e+02  2.06597e+06 -2.20842e+06  4.78569e+02  0.00000e+00 -1.41980e+05 -1.67356e+03 -1.43653e+05  3.47746e-01  1.00000e+00  2.72783e+01  0.00000e+00  1.62574e+01 
 9.62949e-03  8.47996e-03  0.00000e+00  3.47944e+00  3.03826e-04  3.60141e+02  3.60054e+02  3.35961e+00  3.40001e+00  3.56896e-01 -5.92517e+01  1.14715e+02  2.43847e+06 -2.61915e+06  4.88383e+02  0.00000e+00 -1.80194e+05 -3.75511e+03 -1.83949e+05  3.56902e-01  1.00000e+00  5.92972e+01  0.00000e+00  2.04004e+01 
 9.84019e-03  8.71849e-03  0.00000e+00  3.47944e+00  2.81266e-04  3.60193e+02  3.60055e+02  3.19264e+00  3.22934e+00  3.66403e-01 -1.12862e+02  1.23917e+02  3.00679e+06 -3.25855e+06  5.01276e+02  0.00000e+00 -2.51264e+05 -7.52361e+03 -2.58788e+05  3.66412e-01  1.00000e+00  1.12912e+02  0.00000e+00  2.66357e+01 
 1.00521e-02  8.95702e-03  0.00000e+00  3.47944e+00  2.51484e-04  3.60273e+02  3.60055e+02  3.01901e+00  3.05169e+00  3.76018e-01 -2.22170e+02  1.38593e+02  4.05693e+06 -4.41423e+06  5.25369e+02  0.00000e+00 -3.56774e+05 -1.61382e+04 -3.72913e+05  3.76025e-01  1.00000e+00  2.22228e+02  0.00000e+00  3.82831e+01 
 1.02653e-02  9.19555e-03  0.00000e+00  3.47944e+00  2.14349e-04  3.60432e+02  3.60056e+02  2.71158e+00  2.73846e+00  3.87016e-01 -5.11261e+02  1.62605e+02  6.21952e+06 -6.74101e+06  5.49736e+02  0.00000e+00 -5.20934e+05 -4.23285e+04 -5.63262e+05  3.87030e-01  1.00000e+00  5.11330e+02  0.00000e+00  6.36792e+01 
 1.04795e-02  9.43408e-03  0.00000e+00  3.47944e+00  1.70028e-04  3.60915e+02  3.60057e+02  2.25999e+00  2.27646e+00  3.99606e-01 -4.99256e+03  2.04996e+02  1.25434e+07 -1.19821e+07  5.98526e+02  1.01984e+06  1.58173e+06 -1.61854e+06 -3.68133e+04  3.99617e-01  1.00000e+00  4.99264e+03  3.25731e+03  1.61668e+02 
