# Code_Saturne plot output (1D profile)
#
# Iteration output: 2595
# Time output:      2.30008e+01
#
#COLUMN_TITLES: Distance | X | Y | Z | diameter_Field2 | temp_Field1 | temp_Field2 | Velocity_Field1[Z] | Velocity_Field2[Z] | vol_f_Field2 | mass_trans_Field1 | Xd_Field2 | BK | COAL | COMP | NUCL | W1 | MT | SMBR | ALPBB | CONDNUM | GAMA | GAMANUC | epsilon_Field1
 4.56474e-03  1.39645e-04  0.00000e+00  3.47944e+00  1.69988e-04  3.59664e+02  3.60053e+02  4.76797e+00  4.80282e+00  8.88081e-02  5.76622e+01  2.04994e+02  9.87321e+04 -6.48279e+05  1.29310e+03  0.00000e+00 -5.48254e+05  2.88285e+04 -5.19425e+05  8.88143e-02  1.00000e+00 -5.76588e+01  0.00000e+00  5.46776e-01 
 4.57812e-03  3.76525e-04  4.25872e-21  3.47944e+00  1.90540e-04  3.59665e+02  3.60053e+02  4.76730e+00  4.80719e+00  8.97023e-02  4.99118e+01  1.82882e+02  1.56465e+05 -5.39613e+05  1.15418e+03  0.00000e+00 -3.81993e+05  2.20401e+04 -3.59953e+05  8.97092e-02  1.00000e+00 -4.99088e+01  0.00000e+00  5.53549e-01 
 4.60371e-03  6.13858e-04  0.00000e+00  3.47944e+00  2.04038e-04  3.59668e+02  3.60053e+02  4.76569e+00  4.80881e+00  9.14311e-02  4.62095e+01  1.70784e+02  1.98290e+05 -4.92125e+05  1.07819e+03  0.00000e+00 -2.92757e+05  1.86951e+04 -2.74062e+05  9.14384e-02  1.00000e+00 -4.62067e+01  0.00000e+00  5.66814e-01 
 4.64138e-03  8.51483e-04  0.00000e+00  3.47944e+00  2.12653e-04  3.59674e+02  3.60053e+02  4.76337e+00  4.80842e+00  9.39821e-02  4.45770e+01  1.63866e+02  2.31042e+05 -4.75905e+05  1.03448e+03  0.00000e+00 -2.43829e+05  1.68344e+04 -2.26995e+05  9.39894e-02  1.00000e+00 -4.45743e+01  0.00000e+00  5.86846e-01 
 4.69084e-03  1.08931e-03  0.00000e+00  3.47944e+00  2.18580e-04  3.59680e+02  3.60053e+02  4.76024e+00  4.80648e+00  9.73862e-02  4.39930e+01  1.59422e+02  2.61574e+05 -4.76729e+05  1.00612e+03  0.00000e+00 -2.14149e+05  1.55984e+04 -1.98550e+05  9.73932e-02  1.00000e+00 -4.39903e+01  0.00000e+00  6.14056e-01 
 4.75174e-03  1.32727e-03  1.05001e-20  3.47944e+00  2.23027e-04  3.59689e+02  3.60053e+02  4.75630e+00  4.80327e+00  1.01666e-01  4.39954e+01  1.56243e+02  2.93346e+05 -4.88755e+05  9.85549e+02  0.00000e+00 -1.94423e+05  1.46448e+04 -1.79779e+05  1.01672e-01  1.00000e+00 -4.39926e+01  0.00000e+00  6.49038e-01 
 4.82366e-03  1.56534e-03  0.00000e+00  3.47944e+00  2.26690e-04  3.59699e+02  3.60053e+02  4.75149e+00  4.79893e+00  1.06844e-01  4.43341e+01  1.53719e+02  3.28141e+05 -5.09252e+05  9.68937e+02  0.00000e+00 -1.80141e+05  1.38156e+04 -1.66326e+05  1.06849e-01  1.00000e+00 -4.43313e+01  0.00000e+00  6.92550e-01 
 4.90611e-03  1.80349e-03  8.81027e-21  3.47944e+00  2.29999e-04  3.59711e+02  3.60053e+02  4.74573e+00  4.79351e+00  1.12939e-01  4.48465e+01  1.51507e+02  3.66864e+05 -5.36752e+05  9.54144e+02  0.00000e+00 -1.68934e+05  1.30312e+04 -1.55903e+05  1.12942e-01  1.00000e+00 -4.48435e+01  0.00000e+00  7.45528e-01 
 4.99859e-03  2.04170e-03  0.00000e+00  3.47944e+00  2.33244e-04  3.59724e+02  3.60053e+02  4.73895e+00  4.78699e+00  1.19959e-01  4.54065e+01  1.49399e+02  4.09863e+05 -5.70285e+05  9.39849e+02  0.00000e+00 -1.59482e+05  1.22491e+04 -1.47233e+05  1.19960e-01  1.00000e+00 -4.54034e+01  0.00000e+00  8.09094e-01 
 5.10055e-03  2.27996e-03  7.58893e-21  3.47944e+00  2.36640e-04  3.59738e+02  3.60053e+02  4.73103e+00  4.77932e+00  1.27901e-01  4.59048e+01  1.47255e+02  4.57048e+05 -6.09013e+05  9.25174e+02  0.00000e+00 -1.51040e+05  1.14479e+04 -1.39592e+05  1.27901e-01  1.00000e+00 -4.59015e+01  0.00000e+00  8.84558e-01 
 5.21143e-03  2.51826e-03  7.09702e-21  3.47944e+00  2.40359e-04  3.59753e+02  3.60053e+02  4.72184e+00  4.77040e+00  1.36741e-01  4.62397e+01  1.44977e+02  5.07923e+05 -6.52011e+05  9.09491e+02  0.00000e+00 -1.43178e+05  1.06190e+04 -1.32559e+05  1.36742e-01  1.00000e+00 -4.62362e+01  0.00000e+00  9.73419e-01 
 5.33068e-03  2.75659e-03  1.33300e-20  3.47944e+00  2.44542e-04  3.59769e+02  3.60053e+02  4.71121e+00  4.76010e+00  1.46433e-01  4.63186e+01  1.42497e+02  5.61617e+05 -6.98170e+05  8.92358e+02  0.00000e+00 -1.35661e+05  9.76312e+03 -1.25897e+05  1.46433e-01  1.00000e+00 -4.63149e+01  0.00000e+00  1.07737e+00 
 5.45775e-03  2.99495e-03  1.25651e-20  3.47944e+00  2.49305e-04  3.59786e+02  3.60053e+02  4.69897e+00  4.74825e+00  1.56910e-01  4.60638e+01  1.39775e+02  6.16911e+05 -7.46209e+05  8.73508e+02  0.00000e+00 -1.28424e+05  8.88797e+03 -1.19536e+05  1.56911e-01  1.00000e+00 -4.60599e+01  0.00000e+00  1.19824e+00 
 5.59212e-03  3.23333e-03  0.00000e+00  3.47944e+00  2.54733e-04  3.59803e+02  3.60053e+02  4.68490e+00  4.73467e+00  1.68069e-01  4.54154e+01  1.36796e+02  6.72356e+05 -7.94637e+05  8.52844e+02  0.00000e+00 -1.21429e+05  8.00665e+03 -1.13422e+05  1.68070e-01  1.00000e+00 -4.54114e+01  0.00000e+00  1.33805e+00 
 5.73326e-03  3.47172e-03  0.00000e+00  3.47944e+00  2.60882e-04  3.59820e+02  3.60053e+02  4.66881e+00  4.71915e+00  1.79798e-01  4.43419e+01  1.33572e+02  7.26360e+05 -8.41949e+05  8.30423e+02  0.00000e+00 -1.14758e+05  7.13512e+03 -1.07623e+05  1.79800e-01  1.00000e+00 -4.43377e+01  0.00000e+00  1.49885e+00 
 5.88069e-03  3.71014e-03 -5.35987e-21  3.47944e+00  2.67759e-04  3.59838e+02  3.60053e+02  4.65048e+00  4.70148e+00  1.91946e-01  4.28384e+01  1.30142e+02  7.77442e+05 -8.86660e+05  8.06501e+02  0.00000e+00 -1.08411e+05  6.29107e+03 -1.02120e+05  1.91948e-01  1.00000e+00 -4.28341e+01  0.00000e+00  1.68281e+00 
 6.03395e-03  3.94857e-03  5.10973e-21  3.47944e+00  2.75324e-04  3.59855e+02  3.60053e+02  4.62970e+00  4.68145e+00  2.04373e-01  4.09339e+01  1.26566e+02  8.24316e+05 -9.27623e+05  7.81402e+02  0.00000e+00 -1.02526e+05  5.49065e+03 -9.70355e+04  2.04376e-01  1.00000e+00 -4.09294e+01  0.00000e+00  1.89202e+00 
 6.19261e-03  4.18701e-03  0.00000e+00  3.47944e+00  2.83466e-04  3.59872e+02  3.60053e+02  4.60634e+00  4.65889e+00  2.16848e-01  3.86733e+01  1.22931e+02  8.66293e+05 -9.63803e+05  7.55774e+02  0.00000e+00 -9.67542e+04  4.74849e+03 -9.20057e+04  2.16853e-01  1.00000e+00 -3.86687e+01  0.00000e+00  2.12872e+00 
 6.35626e-03  4.42546e-03  0.00000e+00  3.47944e+00  2.92042e-04  3.59889e+02  3.60053e+02  4.58026e+00  4.63364e+00  2.29345e-01  3.61449e+01  1.19321e+02  9.02921e+05 -9.95410e+05  7.30035e+02  0.00000e+00 -9.17590e+04  4.07296e+03 -8.76861e+04  2.29349e-01  1.00000e+00 -3.61402e+01  0.00000e+00  2.39500e+00 
 6.52453e-03  4.66392e-03 -8.96437e-21  3.47944e+00  3.00813e-04  3.59905e+02  3.60053e+02  4.55140e+00  4.60560e+00  2.41640e-01  3.34201e+01  1.15842e+02  9.34741e+05 -1.02257e+06  7.04888e+02  0.00000e+00 -8.71210e+04  3.47004e+03 -8.36510e+04  2.41644e-01  1.00000e+00 -3.34154e+01  0.00000e+00  2.69340e+00 
 6.69707e-03  4.90238e-03  1.72236e-20  3.47944e+00  3.09527e-04  3.59921e+02  3.60053e+02  4.51972e+00  4.57468e+00  2.53670e-01  3.05801e+01  1.12581e+02  9.62535e+05 -1.04628e+06  6.80867e+02  0.00000e+00 -8.30671e+04  2.93941e+03 -8.01277e+04  2.53674e-01  1.00000e+00 -3.05752e+01  0.00000e+00  3.02640e+00 
 6.87356e-03  5.14086e-03  8.28595e-21  3.47944e+00  3.17859e-04  3.59937e+02  3.60053e+02  4.48520e+00  4.54082e+00  2.65292e-01  2.76912e+01  1.09630e+02  9.87926e+05 -1.06791e+06  6.58518e+02  0.00000e+00 -7.93214e+04  2.47837e+03 -7.68430e+04  2.65296e-01  1.00000e+00 -2.76863e+01  0.00000e+00  3.39781e+00 
 7.05370e-03  5.37934e-03 -1.59677e-20  3.47944e+00  3.25529e-04  3.59952e+02  3.60053e+02  4.44779e+00  4.50392e+00  2.76545e-01  2.48061e+01  1.07048e+02  1.01231e+06 -1.08932e+06  6.38186e+02  0.00000e+00 -7.63701e+04  2.07961e+03 -7.42905e+04  2.76549e-01  1.00000e+00 -2.48011e+01  0.00000e+00  3.81139e+00 
 7.23722e-03  5.61783e-03  0.00000e+00  3.47944e+00  3.32205e-04  3.59966e+02  3.60053e+02  4.40747e+00  4.46393e+00  2.87295e-01  2.19513e+01  1.04897e+02  1.03796e+06 -1.11228e+06  6.20179e+02  0.00000e+00 -7.37034e+04  1.73579e+03 -7.19676e+04  2.87299e-01  1.00000e+00 -2.19463e+01  0.00000e+00  4.27388e+00 
 7.42387e-03  5.85632e-03  0.00000e+00  3.47944e+00  3.37683e-04  3.59981e+02  3.60053e+02  4.36401e+00  4.42053e+00  2.97676e-01  1.91364e+01  1.03195e+02  1.06620e+06 -1.13888e+06  6.04578e+02  0.00000e+00 -7.20821e+04  1.43670e+03 -7.06454e+04  2.97679e-01  1.00000e+00 -1.91313e+01  0.00000e+00  4.79143e+00 
 7.61342e-03  6.09482e-03  0.00000e+00  3.47944e+00  3.41689e-04  3.59995e+02  3.60054e+02  4.31735e+00  4.37367e+00  3.07537e-01  1.63498e+01  1.01986e+02  1.09968e+06 -1.17103e+06  5.91488e+02  0.00000e+00 -7.07624e+04  1.17415e+03 -6.95883e+04  3.07540e-01  1.00000e+00 -1.63446e+01  0.00000e+00  5.37640e+00 
 7.80566e-03  6.33332e-03  0.00000e+00  3.47944e+00  3.44158e-04  3.60009e+02  3.60054e+02  4.26694e+00  4.32275e+00  3.17109e-01  1.35629e+01  1.01255e+02  1.13928e+06 -1.21078e+06  5.80775e+02  0.00000e+00 -7.09239e+04  9.37776e+02 -6.99862e+04  3.17111e-01  1.00000e+00 -1.35576e+01  0.00000e+00  6.03853e+00 
 8.00039e-03  6.57182e-03  0.00000e+00  3.47944e+00  3.44866e-04  3.60022e+02  3.60054e+02  4.21282e+00  4.26780e+00  3.26182e-01  1.07338e+01  1.01047e+02  1.18844e+06 -1.26044e+06  5.72479e+02  0.00000e+00 -7.14270e+04  7.19960e+02 -7.07070e+04  3.26183e-01  1.00000e+00 -1.07283e+01  0.00000e+00  6.80090e+00 
 8.19744e-03  6.81033e-03  1.31016e-20  3.47944e+00  3.43877e-04  3.60035e+02  3.60054e+02  4.15374e+00  4.20755e+00  3.35082e-01  7.79903e+00  1.01339e+02  1.24775e+06 -1.32243e+06  5.66360e+02  0.00000e+00 -7.41068e+04  5.10581e+02 -7.35963e+04  3.35082e-01  1.00000e+00 -7.79339e+00  0.00000e+00  7.67917e+00 
 8.39664e-03  7.04884e-03  0.00000e+00  3.47944e+00  3.40943e-04  3.60048e+02  3.60054e+02  4.09037e+00  4.14269e+00  3.43523e-01  4.68135e+00  1.02211e+02  1.32273e+06 -1.40061e+06  5.62547e+02  0.00000e+00 -7.73236e+04  3.01358e+02 -7.70223e+04  3.43525e-01  1.00000e+00 -4.67550e+00  0.00000e+00  8.71923e+00 
 8.59784e-03  7.28736e-03  0.00000e+00  3.47944e+00  3.36219e-04  3.60062e+02  3.60055e+02  4.01947e+00  4.06994e+00  3.51918e-01  1.26229e+00  1.03648e+02  1.41427e+06 -1.49877e+06  5.60761e+02  0.00000e+00 -8.39329e+04  8.01466e+01 -8.38527e+04  3.51918e-01  1.00000e+00 -1.25617e+00  0.00000e+00  9.94833e+00 
 8.80092e-03  7.52587e-03  0.00000e+00  3.47944e+00  3.29340e-04  3.60075e+02  3.60055e+02  3.94425e+00  3.99255e+00  3.59927e-01 -5.94340e+00  1.05813e+02  1.53280e+06 -1.62505e+06  5.61408e+02  0.00000e+00 -9.16953e+04 -3.79323e+02 -9.20746e+04  3.59928e-01  1.00000e+00  5.95617e+00  0.00000e+00  1.14672e+01 
 9.00573e-03  7.76439e-03 -1.17014e-20  3.47944e+00  3.20480e-04  3.60090e+02  3.60055e+02  3.85547e+00  3.90126e+00  3.68015e-01 -1.64016e+01  1.08739e+02  1.68156e+06 -1.78754e+06  5.64100e+02  0.00000e+00 -1.05419e+05 -1.05070e+03 -1.06469e+05  3.68015e-01  1.00000e+00  1.64150e+01  0.00000e+00  1.33332e+01 
 9.21216e-03  8.00291e-03  0.00000e+00  3.47944e+00  3.08968e-04  3.60106e+02  3.60056e+02  3.76407e+00  3.80700e+00  3.75839e-01 -2.99257e+01  1.12792e+02  1.88428e+06 -2.00742e+06  5.70183e+02  0.00000e+00 -1.22568e+05 -1.94644e+03 -1.24515e+05  3.75839e-01  1.00000e+00  2.99399e+01  0.00000e+00  1.58006e+01 
 9.42012e-03  8.24144e-03  0.00000e+00  3.47944e+00  2.94931e-04  3.60125e+02  3.60056e+02  3.64511e+00  3.68489e+00  3.83873e-01 -4.89808e+01  1.18161e+02  2.15482e+06 -2.30809e+06  5.78616e+02  0.00000e+00 -1.52690e+05 -3.26712e+03 -1.55957e+05  3.83870e-01  1.00000e+00  4.89960e+01  0.00000e+00  1.90390e+01 
 9.62949e-03  8.47996e-03  0.00000e+00  3.47944e+00  2.77201e-04  3.60151e+02  3.60057e+02  3.52754e+00  3.56382e+00  3.91864e-01 -7.89173e+01  1.25720e+02  2.56039e+06 -2.75455e+06  5.93370e+02  0.00000e+00 -1.93560e+05 -5.48583e+03 -1.99046e+05  3.91863e-01  1.00000e+00  7.89337e+01  0.00000e+00  2.38456e+01 
 9.84019e-03  8.71849e-03  0.00000e+00  3.47944e+00  2.55680e-04  3.60189e+02  3.60057e+02  3.35052e+00  3.38319e+00  4.00150e-01 -1.32086e+02  1.36303e+02  3.17540e+06 -3.44386e+06  6.11130e+02  0.00000e+00 -2.67840e+05 -9.74814e+03 -2.77588e+05  4.00146e-01  1.00000e+00  1.32104e+02  0.00000e+00  3.10649e+01 
 1.00521e-02  8.95702e-03  0.00000e+00  3.47944e+00  2.28103e-04  3.60254e+02  3.60058e+02  3.17118e+00  3.20015e+00  4.08582e-01 -2.46536e+02  1.52784e+02  4.30131e+06 -4.67485e+06  6.42655e+02  0.00000e+00 -3.72897e+05 -1.99725e+04 -3.92870e+05  4.08580e-01  1.00000e+00  2.46557e+02  0.00000e+00  4.45708e+01 
 1.02653e-02  9.19555e-03  0.00000e+00  3.47944e+00  1.94698e-04  3.60397e+02  3.60059e+02  2.84575e+00  2.86970e+00  4.18154e-01 -5.63750e+02  1.79000e+02  6.58585e+06 -7.08790e+06  6.71395e+02  0.00000e+00 -5.01383e+05 -5.22802e+04 -5.53663e+05  4.18153e-01  1.00000e+00  5.63774e+02  0.00000e+00  7.39326e+01 
 1.04795e-02  9.43408e-03  0.00000e+00  3.47944e+00  1.57143e-04  3.60869e+02  3.60060e+02  2.37776e+00  2.39258e+00  4.29432e-01 -5.29009e+03  2.21782e+02  1.29602e+07 -1.20296e+07  7.19212e+02  7.78503e+05  1.70984e+06 -1.74141e+06 -3.15631e+04  4.29441e-01  1.00000e+00  5.29012e+03  3.33906e+03  1.87103e+02 
