# Code_Saturne plot output (1D profile)
#
# Iteration output: 8714
# Time output:      2.30000e+01
#
#COLUMN_TITLES: Distance | X | Y | Z | diameter_Field2 | temp_Field1 | temp_Field2 | Velocity_Field1[Z] | Velocity_Field2[Z] | vol_f_Field2 | mass_trans_Field1 | Xd_Field2 | BK | COAL | COMP | NUCL | W1 | MT | SMBR | ALPBB | CONDNUM | GAMA | GAMANUC | epsilon_Field1
 4.56474e-03  1.39645e-04  0.00000e+00  3.47944e+00  8.37261e-04  3.60261e+02  3.60104e+02  7.62732e+00  7.78196e+00  6.05996e-01 -2.83535e+01  4.15152e+01  1.88831e+05 -1.93664e+05  8.45902e+02  0.00000e+00 -3.98726e+03 -8.59033e+02 -4.84629e+03  6.05991e-01  1.00000e+00  2.83673e+01  0.00000e+00  7.29129e+00 
 4.57812e-03  3.76525e-04  4.25872e-21  3.47944e+00  8.35882e-04  3.60261e+02  3.60104e+02  7.62636e+00  7.78142e+00  6.06053e-01 -2.84069e+01  4.15837e+01  1.89622e+05 -1.94432e+05  8.47290e+02  0.00000e+00 -3.96274e+03 -8.61991e+02 -4.82473e+03  6.06048e-01  1.00000e+00  2.84208e+01  0.00000e+00  7.32541e+00 
 4.60371e-03  6.13858e-04  0.00000e+00  3.47944e+00  8.33041e-04  3.60261e+02  3.60104e+02  7.62241e+00  7.77712e+00  6.06168e-01 -2.84787e+01  4.17255e+01  1.91226e+05 -1.96080e+05  8.49828e+02  0.00000e+00 -4.00345e+03 -8.66954e+02 -4.87040e+03  6.06164e-01  1.00000e+00  2.84927e+01  0.00000e+00  7.39214e+00 
 4.64138e-03  8.51483e-04  0.00000e+00  3.47944e+00  8.28829e-04  3.60260e+02  3.60104e+02  7.61685e+00  7.77073e+00  6.06365e-01 -2.85745e+01  4.19375e+01  1.93621e+05 -1.98575e+05  8.53590e+02  0.00000e+00 -4.10063e+03 -8.74005e+02 -4.97464e+03  6.06361e-01  1.00000e+00  2.85885e+01  0.00000e+00  7.49196e+00 
 4.69084e-03  1.08931e-03  0.00000e+00  3.47944e+00  8.23253e-04  3.60260e+02  3.60104e+02  7.60924e+00  7.76194e+00  6.06635e-01 -2.87003e+01  4.22216e+01  1.96845e+05 -2.01960e+05  8.58591e+02  0.00000e+00 -4.25674e+03 -8.83407e+02 -5.14015e+03  6.06632e-01  1.00000e+00  2.87144e+01  0.00000e+00  7.62616e+00 
 4.75174e-03  1.32727e-03  1.05001e-20  3.47944e+00  8.16380e-04  3.60259e+02  3.60104e+02  7.59975e+00  7.75095e+00  6.06988e-01 -2.88560e+01  4.25770e+01  2.00915e+05 -2.06252e+05  8.64864e+02  0.00000e+00 -4.47195e+03 -8.95158e+02 -5.36711e+03  6.06985e-01  1.00000e+00  2.88703e+01  0.00000e+00  7.79615e+00 
 4.82366e-03  1.56534e-03  0.00000e+00  3.47944e+00  8.08259e-04  3.60258e+02  3.60104e+02  7.58827e+00  7.73767e+00  6.07420e-01 -2.90418e+01  4.30049e+01  2.05870e+05 -2.11495e+05  8.72399e+02  0.00000e+00 -4.75232e+03 -9.09331e+02 -5.66166e+03  6.07417e-01  1.00000e+00  2.90563e+01  0.00000e+00  8.00362e+00 
 4.90611e-03  1.80349e-03  8.81027e-21  3.47944e+00  7.98970e-04  3.60257e+02  3.60104e+02  7.57480e+00  7.72211e+00  6.07939e-01 -2.92568e+01  4.35049e+01  2.11745e+05 -2.17724e+05  8.81165e+02  0.00000e+00 -5.09763e+03 -9.25927e+02 -6.02355e+03  6.07937e-01  1.00000e+00  2.92716e+01  0.00000e+00  8.25083e+00 
 4.99859e-03  2.04170e-03  0.00000e+00  3.47944e+00  7.88599e-04  3.60256e+02  3.60104e+02  7.55929e+00  7.70423e+00  6.08529e-01 -2.95001e+01  4.40771e+01  2.18592e+05 -2.24979e+05  8.91143e+02  0.00000e+00 -5.49582e+03 -9.44992e+02 -6.44081e+03  6.08527e-01  1.00000e+00  2.95151e+01  0.00000e+00  8.54009e+00 
 5.10055e-03  2.27996e-03  7.58893e-21  3.47944e+00  7.77245e-04  3.60254e+02  3.60104e+02  7.54163e+00  7.68397e+00  6.09233e-01 -2.97705e+01  4.47211e+01  2.26445e+05 -2.33304e+05  9.02145e+02  0.00000e+00 -5.95665e+03 -9.66475e+02 -6.92313e+03  6.09232e-01  1.00000e+00  2.97859e+01  0.00000e+00  8.87552e+00 
 5.21143e-03  2.51826e-03  7.09702e-21  3.47944e+00  7.65003e-04  3.60253e+02  3.60104e+02  7.52181e+00  7.66131e+00  6.10013e-01 -3.00674e+01  4.54369e+01  2.35378e+05 -2.42751e+05  9.14325e+02  0.00000e+00 -6.45837e+03 -9.90477e+02 -7.44885e+03  6.10010e-01  1.00000e+00  3.00831e+01  0.00000e+00  9.25964e+00 
 5.33068e-03  2.75659e-03  1.33300e-20  3.47944e+00  7.51969e-04  3.60251e+02  3.60104e+02  7.49969e+00  7.63616e+00  6.10919e-01 -3.03897e+01  4.62245e+01  2.45438e+05 -2.53386e+05  9.27608e+02  0.00000e+00 -7.02010e+03 -1.01695e+03 -8.03705e+03  6.10914e-01  1.00000e+00  3.04058e+01  0.00000e+00  9.69778e+00 
 5.45775e-03  2.99495e-03  1.25651e-20  3.47944e+00  7.38237e-04  3.60249e+02  3.60105e+02  7.47520e+00  7.60845e+00  6.11935e-01 -3.07374e+01  4.70845e+01  2.56700e+05 -2.65298e+05  9.41986e+02  0.00000e+00 -7.65596e+03 -1.04599e+03 -8.70195e+03  6.11930e-01  1.00000e+00  3.07540e+01  0.00000e+00  1.01934e+01 
 5.59212e-03  3.23333e-03  0.00000e+00  3.47944e+00  7.23867e-04  3.60247e+02  3.60105e+02  7.44828e+00  7.57816e+00  6.13068e-01 -3.11100e+01  4.80194e+01  2.69282e+05 -2.78589e+05  9.57384e+02  0.00000e+00 -8.34979e+03 -1.07771e+03 -9.42750e+03  6.13062e-01  1.00000e+00  3.11270e+01  0.00000e+00  1.07541e+01 
 5.73326e-03  3.47172e-03  0.00000e+00  3.47944e+00  7.08944e-04  3.60245e+02  3.60105e+02  7.41875e+00  7.54511e+00  6.14269e-01 -3.15091e+01  4.90304e+01  2.83299e+05 -2.93378e+05  9.73849e+02  0.00000e+00 -9.10597e+03 -1.11234e+03 -1.02183e+04  6.14265e-01  1.00000e+00  3.15266e+01  0.00000e+00  1.13836e+01 
 5.88069e-03  3.71014e-03 -5.35987e-21  3.47944e+00  6.93536e-04  3.60243e+02  3.60105e+02  7.38655e+00  7.50929e+00  6.15568e-01 -3.19334e+01  5.01199e+01  2.98887e+05 -3.09789e+05  9.91361e+02  0.00000e+00 -9.91114e+03 -1.14995e+03 -1.10611e+04  6.15565e-01  1.00000e+00  3.19516e+01  0.00000e+00  1.20917e+01 
 6.03395e-03  3.94857e-03  5.10973e-21  3.47944e+00  6.77722e-04  3.60241e+02  3.60105e+02  7.35141e+00  7.47043e+00  6.16920e-01 -3.23865e+01  5.12897e+01  3.16194e+05 -3.27971e+05  1.00991e+03  0.00000e+00 -1.07676e+04 -1.19088e+03 -1.19585e+04  6.16918e-01  1.00000e+00  3.24053e+01  0.00000e+00  1.28840e+01 
 6.19261e-03  4.18701e-03  0.00000e+00  3.47944e+00  6.61554e-04  3.60239e+02  3.60106e+02  7.31337e+00  7.42858e+00  6.18380e-01 -3.28677e+01  5.25435e+01  3.35385e+05 -3.48109e+05  1.02949e+03  0.00000e+00 -1.16948e+04 -1.23521e+03 -1.29300e+04  6.18379e-01  1.00000e+00  3.28872e+01  0.00000e+00  1.37738e+01 
 6.35626e-03  4.42546e-03  0.00000e+00  3.47944e+00  6.45101e-04  3.60237e+02  3.60106e+02  7.27195e+00  7.38329e+00  6.19879e-01 -3.33834e+01  5.38839e+01  3.56659e+05 -3.70410e+05  1.05008e+03  0.00000e+00 -1.27012e+04 -1.28349e+03 -1.39847e+04  6.19879e-01  1.00000e+00  3.34036e+01  0.00000e+00  1.47672e+01 
 6.52453e-03  4.66392e-03 -8.96437e-21  3.47944e+00  6.28394e-04  3.60234e+02  3.60106e+02  7.22738e+00  7.33479e+00  6.21497e-01 -3.39341e+01  5.53169e+01  3.80248e+05 -3.95123e+05  1.07172e+03  0.00000e+00 -1.38035e+04 -1.33589e+03 -1.51393e+04  6.21496e-01  1.00000e+00  3.39551e+01  0.00000e+00  1.58841e+01 
 6.69707e-03  4.90238e-03  1.72236e-20  3.47944e+00  6.11491e-04  3.60232e+02  3.60107e+02  7.17885e+00  7.28228e+00  6.23131e-01 -3.45317e+01  5.68464e+01  4.06430e+05 -4.22548e+05  1.09434e+03  0.00000e+00 -1.50239e+04 -1.39337e+03 -1.64173e+04  6.23129e-01  1.00000e+00  3.45536e+01  0.00000e+00  1.71312e+01 
 6.87356e-03  5.14086e-03  8.28595e-21  3.47944e+00  5.94397e-04  3.60230e+02  3.60107e+02  7.12699e+00  7.22638e+00  6.24895e-01 -3.51802e+01  5.84817e+01  4.35537e+05 -4.53043e+05  1.11812e+03  0.00000e+00 -1.63875e+04 -1.45627e+03 -1.78437e+04  6.24892e-01  1.00000e+00  3.52030e+01  0.00000e+00  1.85383e+01 
 7.05370e-03  5.37934e-03 -1.59677e-20  3.47944e+00  5.77155e-04  3.60227e+02  3.60107e+02  7.07024e+00  7.16558e+00  6.26642e-01 -3.59013e+01  6.02293e+01  4.67990e+05 -4.87049e+05  1.14293e+03  0.00000e+00 -1.79165e+04 -1.52629e+03 -1.94428e+04  6.26637e-01  1.00000e+00  3.59252e+01  0.00000e+00  2.01135e+01 
 7.23722e-03  5.61783e-03  0.00000e+00  3.47944e+00  5.59740e-04  3.60225e+02  3.60108e+02  7.01019e+00  7.10142e+00  6.28537e-01 -3.67063e+01  6.21038e+01  5.04285e+05 -5.25113e+05  1.16929e+03  0.00000e+00 -1.96584e+04 -1.60425e+03 -2.12626e+04  6.28532e-01  1.00000e+00  3.67314e+01  0.00000e+00  2.19032e+01 
 7.42387e-03  5.85632e-03  0.00000e+00  3.47944e+00  5.42182e-04  3.60223e+02  3.60108e+02  6.94358e+00  7.03068e+00  6.30448e-01 -3.76365e+01  6.41156e+01  5.44998e+05 -5.67945e+05  1.19658e+03  0.00000e+00 -2.17505e+04 -1.69308e+03 -2.34436e+04  6.30440e-01  1.00000e+00  3.76628e+01  0.00000e+00  2.39205e+01 
 7.61342e-03  6.09482e-03  0.00000e+00  3.47944e+00  5.24405e-04  3.60221e+02  3.60109e+02  6.87450e+00  6.95745e+00  6.32487e-01 -3.87180e+01  6.62897e+01  5.91075e+05 -6.16427e+05  1.22622e+03  0.00000e+00 -2.41261e+04 -1.79502e+03 -2.59211e+04  6.32477e-01  1.00000e+00  3.87456e+01  0.00000e+00  2.62363e+01 
 7.80566e-03  6.33332e-03  0.00000e+00  3.47944e+00  5.06440e-04  3.60219e+02  3.60110e+02  6.79519e+00  6.87392e+00  6.34478e-01 -4.00293e+01  6.86421e+01  6.43442e+05 -6.71703e+05  1.25612e+03  0.00000e+00 -2.70044e+04 -1.91568e+03 -2.89201e+04  6.34466e-01  1.00000e+00  4.00585e+01  0.00000e+00  2.88719e+01 
 8.00039e-03  6.57182e-03  0.00000e+00  3.47944e+00  4.88136e-04  3.60217e+02  3.60110e+02  6.71647e+00  6.79100e+00  6.36716e-01 -4.16288e+01  7.12170e+01  7.03682e+05 -7.35306e+05  1.28865e+03  0.00000e+00 -3.03359e+04 -2.05971e+03 -3.23957e+04  6.36706e-01  1.00000e+00  4.16596e+01  0.00000e+00  3.19662e+01 
 8.19744e-03  6.81033e-03  1.31016e-20  3.47944e+00  4.69547e-04  3.60216e+02  3.60111e+02  6.61957e+00  6.68976e+00  6.38734e-01 -4.36881e+01  7.40374e+01  7.73436e+05 -8.09345e+05  1.32106e+03  0.00000e+00 -3.45876e+04 -2.24012e+03 -3.68277e+04  6.38726e-01  1.00000e+00  4.37207e+01  0.00000e+00  3.55147e+01 
 8.39664e-03  7.04884e-03  0.00000e+00  3.47944e+00  4.50378e-04  3.60216e+02  3.60112e+02  6.53125e+00  6.59713e+00  6.41080e-01 -4.63460e+01  7.71896e+01  8.56015e+05 -8.96723e+05  1.35955e+03  0.00000e+00 -3.93483e+04 -2.46852e+03 -4.18168e+04  6.41076e-01  1.00000e+00  4.63807e+01  0.00000e+00  3.98191e+01 
 8.59784e-03  7.28736e-03  0.00000e+00  3.47944e+00  4.30778e-04  3.60216e+02  3.60112e+02  6.40771e+00  6.46904e+00  6.43194e-01 -5.00083e+01  8.07030e+01  9.53863e+05 -1.00135e+06  1.39538e+03  0.00000e+00 -4.60878e+04 -2.77564e+03 -4.88634e+04  6.43193e-01  1.00000e+00  5.00452e+01  0.00000e+00  4.48565e+01 
 8.80092e-03  7.52587e-03  0.00000e+00  3.47944e+00  4.10149e-04  3.60217e+02  3.60113e+02  6.31040e+00  6.36734e+00  6.45755e-01 -5.50569e+01  8.47633e+01  1.07495e+06 -1.12994e+06  1.44432e+03  0.00000e+00 -5.35471e+04 -3.19682e+03 -5.67439e+04  6.45756e-01  1.00000e+00  5.50966e+01  0.00000e+00  5.12694e+01 
 9.00573e-03  7.76439e-03 -1.17014e-20  3.47944e+00  3.88859e-04  3.60220e+02  3.60114e+02  6.14498e+00  6.19703e+00  6.47959e-01 -6.25666e+01  8.94059e+01  1.22362e+06 -1.29073e+06  1.48546e+03  0.00000e+00 -6.56235e+04 -3.81868e+03 -6.94421e+04  6.47960e-01  1.00000e+00  6.26094e+01  0.00000e+00  5.89766e+01 
 9.21216e-03  8.00291e-03  0.00000e+00  3.47944e+00  3.65737e-04  3.60225e+02  3.60115e+02  6.03795e+00  6.08541e+00  6.50809e-01 -7.39060e+01  9.50597e+01  1.42090e+06 -1.50157e+06  1.55340e+03  0.00000e+00 -7.91074e+04 -4.77478e+03 -8.38822e+04  6.50810e-01  1.00000e+00  7.39526e+01  0.00000e+00  6.95581e+01 
 9.42012e-03  8.24144e-03  0.00000e+00  3.47944e+00  3.41485e-04  3.60235e+02  3.60116e+02  5.80037e+00  5.84189e+00  6.53305e-01 -9.25814e+01  1.01813e+02  1.67788e+06 -1.78468e+06  1.60359e+03  0.00000e+00 -1.05203e+05 -6.38139e+03 -1.11585e+05  6.53305e-01  1.00000e+00  9.26326e+01  0.00000e+00  8.29870e+01 
 9.62949e-03  8.47996e-03  0.00000e+00  3.47944e+00  3.14005e-04  3.60252e+02  3.60117e+02  5.67194e+00  5.70890e+00  6.56663e-01 -1.25276e+02  1.10725e+02  2.05735e+06 -2.20043e+06  1.70426e+03  0.00000e+00 -1.41374e+05 -9.34216e+03 -1.50716e+05  6.56660e-01  1.00000e+00  1.25333e+02  0.00000e+00  1.03422e+02 
 9.84019e-03  8.71849e-03  0.00000e+00  3.47944e+00  2.83937e-04  3.60284e+02  3.60119e+02  5.32198e+00  5.35254e+00  6.59652e-01 -1.90162e+02  1.22454e+02  2.62548e+06 -2.84035e+06  1.77075e+03  0.00000e+00 -2.13098e+05 -1.56107e+04 -2.28708e+05  6.59649e-01  1.00000e+00  1.90227e+02  0.00000e+00  1.33346e+02 
 1.00521e-02  8.95702e-03  0.00000e+00  3.47944e+00  2.47509e-04  3.60348e+02  3.60120e+02  5.11558e+00  5.14250e+00  6.64000e-01 -3.44292e+02  1.40480e+02  3.67104e+06 -4.00171e+06  1.93999e+03  0.00000e+00 -3.28739e+05 -3.22060e+04 -3.60945e+05  6.63989e-01  1.00000e+00  3.44369e+02  0.00000e+00  1.90562e+02 
 1.02653e-02  9.19555e-03  0.00000e+00  3.47944e+00  2.03432e-04  3.60513e+02  3.60123e+02  4.52944e+00  4.55092e+00  6.67185e-01 -8.41101e+02  1.70925e+02  5.97355e+06 -6.51150e+06  2.07345e+03  0.00000e+00 -5.35868e+05 -9.52548e+04 -6.31123e+05  6.67166e-01  1.00000e+00  8.41198e+02  0.00000e+00  3.16646e+02 
 1.04795e-02  9.43408e-03  0.00000e+00  3.47944e+00  1.49232e-04  3.61142e+02  3.60125e+02  3.86289e+00  3.87676e+00  6.74935e-01 -7.96105e+03  2.33013e+02  1.34081e+07 -1.30966e+07  2.46222e+03  1.86781e+06  2.18180e+06 -2.20053e+06 -1.87242e+04  6.74923e-01  1.00000e+00  7.96119e+03  4.28221e+03  8.04454e+02 
