# Code_Saturne plot output (1D profile)
#
# Iteration output: 5724
# Time output:      2.30001e+01
#
#COLUMN_TITLES: Distance | X | Y | Z | diameter_Field2 | temp_Field1 | temp_Field2 | Velocity_Field1[Z] | Velocity_Field2[Z] | vol_f_Field2 | mass_trans_Field1 | Xd_Field2 | BK | COAL | COMP | NUCL | W1 | MT | SMBR | ALPBB | CONDNUM | GAMA | GAMANUC | epsilon_Field1
 4.56474e-03  1.39645e-04  0.00000e+00  3.47944e+00  3.80197e-04  3.60143e+02  3.60069e+02  6.26406e+00  6.34488e+00  4.43785e-01 -2.57377e+01  9.15712e+01  5.42823e+05 -7.05261e+05  1.00508e+03  0.00000e+00 -1.61433e+05 -3.36468e+03 -1.64798e+05  4.43799e-01  1.00000e+00  2.58594e+01  0.00000e+00  2.79109e+00 
 4.57812e-03  3.76525e-04  4.25872e-21  3.47944e+00  3.85812e-04  3.60143e+02  3.60069e+02  6.26142e+00  6.34390e+00  4.44195e-01 -2.52562e+01  9.02385e+01  5.35874e+05 -6.86660e+05  9.90187e+02  0.00000e+00 -1.49795e+05 -3.25074e+03 -1.53046e+05  4.44208e-01  1.00000e+00  2.53759e+01  0.00000e+00  2.81383e+00 
 4.60371e-03  6.13858e-04  0.00000e+00  3.47944e+00  3.88227e-04  3.60142e+02  3.60069e+02  6.25724e+00  6.34022e+00  4.44708e-01 -2.50437e+01  8.96773e+01  5.36077e+05 -6.80985e+05  9.83582e+02  0.00000e+00 -1.43924e+05 -3.19969e+03 -1.47124e+05  4.44721e-01  1.00000e+00  2.51627e+01  0.00000e+00  2.85786e+00 
 4.64138e-03  8.51483e-04  0.00000e+00  3.47944e+00  3.88973e-04  3.60142e+02  3.60069e+02  6.25105e+00  6.33393e+00  4.45475e-01 -2.49642e+01  8.95053e+01  5.40766e+05 -6.82549e+05  9.80916e+02  0.00000e+00 -1.40801e+05 -3.17800e+03 -1.43979e+05  4.45488e-01  1.00000e+00  2.50834e+01  0.00000e+00  2.92375e+00 
 4.69084e-03  1.08931e-03  0.00000e+00  3.47944e+00  3.88925e-04  3.60142e+02  3.60069e+02  6.24283e+00  6.32527e+00  4.46471e-01 -2.49403e+01  8.95161e+01  5.48525e+05 -6.88145e+05  9.79949e+02  0.00000e+00 -1.38640e+05 -3.16833e+03 -1.41808e+05  4.46484e-01  1.00000e+00  2.50600e+01  0.00000e+00  3.01172e+00 
 4.75174e-03  1.32727e-03  1.05001e-20  3.47944e+00  3.88482e-04  3.60142e+02  3.60069e+02  6.23259e+00  6.31438e+00  4.47695e-01 -2.49379e+01  8.96183e+01  5.58703e+05 -6.96362e+05  9.79687e+02  0.00000e+00 -1.36679e+05 -3.16309e+03 -1.39842e+05  4.47708e-01  1.00000e+00  2.50584e+01  0.00000e+00  3.12257e+00 
 4.82366e-03  1.56534e-03  0.00000e+00  3.47944e+00  3.87857e-04  3.60141e+02  3.60069e+02  6.22032e+00  6.30132e+00  4.49147e-01 -2.49384e+01  8.97626e+01  5.70874e+05 -7.06398e+05  9.79598e+02  0.00000e+00 -1.34544e+05 -3.15814e+03 -1.37702e+05  4.49160e-01  1.00000e+00  2.50599e+01  0.00000e+00  3.25691e+00 
 4.90611e-03  1.80349e-03  8.81027e-21  3.47944e+00  3.87119e-04  3.60141e+02  3.60069e+02  6.20606e+00  6.28617e+00  4.50802e-01 -2.49349e+01  8.99339e+01  5.84886e+05 -7.17925e+05  9.79518e+02  0.00000e+00 -1.32060e+05 -3.15224e+03 -1.35212e+05  4.50815e-01  1.00000e+00  2.50575e+01  0.00000e+00  3.41577e+00 
 4.99859e-03  2.04170e-03  0.00000e+00  3.47944e+00  3.86307e-04  3.60140e+02  3.60069e+02  6.18980e+00  6.26894e+00  4.52661e-01 -2.49228e+01  9.01231e+01  6.00568e+05 -7.30732e+05  9.79354e+02  0.00000e+00 -1.29185e+05 -3.14455e+03 -1.32329e+05  4.52673e-01  1.00000e+00  2.50466e+01  0.00000e+00  3.60005e+00 
 5.10055e-03  2.27996e-03  7.58893e-21  3.47944e+00  3.85399e-04  3.60140e+02  3.60069e+02  6.17154e+00  6.24965e+00  4.54697e-01 -2.49022e+01  9.03355e+01  6.17905e+05 -7.44800e+05  9.79154e+02  0.00000e+00 -1.25916e+05 -3.13546e+03 -1.29051e+05  4.54709e-01  1.00000e+00  2.50275e+01  0.00000e+00  3.81103e+00 
 5.21143e-03  2.51826e-03  7.09702e-21  3.47944e+00  3.84373e-04  3.60139e+02  3.60069e+02  6.15130e+00  6.22830e+00  4.56905e-01 -2.48738e+01  9.05768e+01  6.36857e+05 -7.60153e+05  9.78990e+02  0.00000e+00 -1.22317e+05 -3.12529e+03 -1.25442e+05  4.56917e-01  1.00000e+00  2.50007e+01  0.00000e+00  4.04995e+00 
 5.33068e-03  2.75659e-03  1.33300e-20  3.47944e+00  3.83178e-04  3.60138e+02  3.60069e+02  6.12903e+00  6.20487e+00  4.59262e-01 -2.48401e+01  9.08594e+01  6.57495e+05 -7.76925e+05  9.78971e+02  0.00000e+00 -1.18451e+05 -3.11496e+03 -1.21566e+05  4.59274e-01  1.00000e+00  2.49686e+01  0.00000e+00  4.31845e+00 
 5.45775e-03  2.99495e-03  1.25651e-20  3.47944e+00  3.81770e-04  3.60137e+02  3.60069e+02  6.10473e+00  6.17934e+00  4.61756e-01 -2.48034e+01  9.11947e+01  6.79876e+05 -7.95271e+05  9.79249e+02  0.00000e+00 -1.14415e+05 -3.10524e+03 -1.17521e+05  4.61768e-01  1.00000e+00  2.49338e+01  0.00000e+00  4.61815e+00 
 5.59212e-03  3.23333e-03  0.00000e+00  3.47944e+00  3.80089e-04  3.60137e+02  3.60070e+02  6.07836e+00  6.15167e+00  4.64347e-01 -2.47666e+01  9.15980e+01  7.04202e+05 -8.15419e+05  9.79876e+02  0.00000e+00 -1.10237e+05 -3.09726e+03 -1.13334e+05  4.64359e-01  1.00000e+00  2.48992e+01  0.00000e+00  4.95133e+00 
 5.73326e-03  3.47172e-03  0.00000e+00  3.47944e+00  3.78100e-04  3.60136e+02  3.60070e+02  6.04987e+00  6.12180e+00  4.67062e-01 -2.47337e+01  9.20801e+01  7.30539e+05 -8.37648e+05  9.81028e+02  0.00000e+00 -1.06128e+05 -3.09167e+03 -1.09219e+05  4.67073e-01  1.00000e+00  2.48686e+01  0.00000e+00  5.32003e+00 
 5.88069e-03  3.71014e-03 -5.35987e-21  3.47944e+00  3.75753e-04  3.60135e+02  3.60070e+02  6.01921e+00  6.08966e+00  4.69891e-01 -2.47076e+01  9.26555e+01  7.59181e+05 -8.62328e+05  9.82715e+02  0.00000e+00 -1.02165e+05 -3.08934e+03 -1.05254e+05  4.69901e-01  1.00000e+00  2.48449e+01  0.00000e+00  5.72823e+00 
 6.03395e-03  3.94857e-03  5.10973e-21  3.47944e+00  3.73018e-04  3.60134e+02  3.60070e+02  5.98630e+00  6.05519e+00  4.72812e-01 -2.46916e+01  9.33351e+01  7.90301e+05 -8.89738e+05  9.85138e+02  0.00000e+00 -9.84516e+04 -3.09116e+03 -1.01543e+05  4.72821e-01  1.00000e+00  2.48318e+01  0.00000e+00  6.17798e+00 
 6.19261e-03  4.18701e-03  0.00000e+00  3.47944e+00  3.69860e-04  3.60133e+02  3.60070e+02  5.95106e+00  6.01829e+00  4.75785e-01 -2.46869e+01  9.41326e+01  8.24361e+05 -9.20276e+05  9.88247e+02  0.00000e+00 -9.49267e+04 -3.09790e+03 -9.80246e+04  4.75793e-01  1.00000e+00  2.48302e+01  0.00000e+00  6.67480e+00 
 6.35626e-03  4.42546e-03  0.00000e+00  3.47944e+00  3.66266e-04  3.60132e+02  3.60070e+02  5.91338e+00  5.97887e+00  4.78804e-01 -2.46994e+01  9.50566e+01  8.61606e+05 -9.54308e+05  9.92278e+02  0.00000e+00 -9.17101e+04 -3.11059e+03 -9.48207e+04  4.78811e-01  1.00000e+00  2.48462e+01  0.00000e+00  7.22218e+00 
 6.52453e-03  4.66392e-03 -8.96437e-21  3.47944e+00  3.62215e-04  3.60131e+02  3.60070e+02  5.87315e+00  5.93678e+00  4.81852e-01 -2.47299e+01  9.61201e+01  9.02594e+05 -9.92374e+05  9.97161e+02  0.00000e+00 -8.87831e+04 -3.12981e+03 -9.19129e+04  4.81859e-01  1.00000e+00  2.48804e+01  0.00000e+00  7.82757e+00 
 6.69707e-03  4.90238e-03  1.72236e-20  3.47944e+00  3.57713e-04  3.60130e+02  3.60071e+02  5.83020e+00  5.89190e+00  4.84950e-01 -2.47870e+01  9.73303e+01  9.47669e+05 -1.03498e+06  1.00305e+03  0.00000e+00 -8.63077e+04 -3.15675e+03 -8.94645e+04  4.84956e-01  1.00000e+00  2.49417e+01  0.00000e+00  8.49715e+00 
 6.87356e-03  5.14086e-03  8.28595e-21  3.47944e+00  3.52739e-04  3.60129e+02  3.60071e+02  5.78439e+00  5.84404e+00  4.88076e-01 -2.48734e+01  9.87032e+01  9.97609e+05 -1.08287e+06  1.00993e+03  0.00000e+00 -8.42466e+04 -3.19238e+03 -8.74390e+04  4.88081e-01  1.00000e+00  2.50326e+01  0.00000e+00  9.24164e+00 
 7.05370e-03  5.37934e-03 -1.59677e-20  3.47944e+00  3.47307e-04  3.60128e+02  3.60071e+02  5.73547e+00  5.79300e+00  4.91243e-01 -2.50015e+01  1.00247e+02  1.05295e+06 -1.13670e+06  1.01786e+03  0.00000e+00 -8.27384e+04 -3.23858e+03 -8.59770e+04  4.91246e-01  1.00000e+00  2.51658e+01  0.00000e+00  1.00703e+01 
 7.23722e-03  5.61783e-03  0.00000e+00  3.47944e+00  3.41387e-04  3.60127e+02  3.60071e+02  5.68331e+00  5.73861e+00  4.94423e-01 -2.51801e+01  1.01986e+02  1.11490e+06 -1.19763e+06  1.02691e+03  0.00000e+00 -8.17001e+04 -3.29753e+03 -8.49976e+04  4.94425e-01  1.00000e+00  2.53499e+01  0.00000e+00  1.10000e+01 
 7.42387e-03  5.85632e-03  0.00000e+00  3.47944e+00  3.34999e-04  3.60126e+02  3.60072e+02  5.62741e+00  5.68041e+00  4.97641e-01 -2.54307e+01  1.03932e+02  1.18423e+06 -1.26664e+06  1.03712e+03  0.00000e+00 -8.13748e+04 -3.37251e+03 -8.47473e+04  4.97642e-01  1.00000e+00  2.56066e+01  0.00000e+00  1.20442e+01 
 7.61342e-03  6.09482e-03  0.00000e+00  3.47944e+00  3.28088e-04  3.60125e+02  3.60072e+02  5.56779e+00  5.61838e+00  5.00862e-01 -2.57750e+01  1.06122e+02  1.26293e+06 -1.34560e+06  1.04865e+03  0.00000e+00 -8.16280e+04 -3.46830e+03 -8.50963e+04  5.00866e-01  1.00000e+00  2.59577e+01  0.00000e+00  1.32313e+01 
 7.80566e-03  6.33332e-03  0.00000e+00  3.47944e+00  3.20679e-04  3.60124e+02  3.60072e+02  5.50337e+00  5.55148e+00  5.04127e-01 -2.62548e+01  1.08574e+02  1.35222e+06 -1.43617e+06  1.06145e+03  0.00000e+00 -8.28937e+04 -3.59159e+03 -8.64853e+04  5.04140e-01  1.00000e+00  2.64449e+01  0.00000e+00  1.45827e+01 
 8.00039e-03  6.57182e-03  0.00000e+00  3.47944e+00  3.12679e-04  3.60123e+02  3.60073e+02  5.43480e+00  5.48032e+00  5.07399e-01 -2.69220e+01  1.11353e+02  1.45553e+06 -1.54161e+06  1.07607e+03  0.00000e+00 -8.49979e+04 -3.75319e+03 -8.87510e+04  5.07425e-01  1.00000e+00  2.71205e+01  0.00000e+00  1.61482e+01 
 8.19744e-03  6.81033e-03  1.31016e-20  3.47944e+00  3.04107e-04  3.60123e+02  3.60073e+02  5.35926e+00  5.40212e+00  5.10726e-01 -2.78684e+01  1.14493e+02  1.57521e+06 -1.66487e+06  1.09215e+03  0.00000e+00 -8.85621e+04 -3.96898e+03 -9.25311e+04  5.10758e-01  1.00000e+00  2.80763e+01  0.00000e+00  1.79671e+01 
 8.39664e-03  7.04884e-03  0.00000e+00  3.47944e+00  2.94812e-04  3.60122e+02  3.60073e+02  5.27976e+00  5.31987e+00  5.14054e-01 -2.92184e+01  1.18104e+02  1.71746e+06 -1.81201e+06  1.11102e+03  0.00000e+00 -9.34353e+04 -4.26485e+03 -9.77001e+04  5.14084e-01  1.00000e+00  2.94369e+01  0.00000e+00  2.01289e+01 
 8.59784e-03  7.28736e-03  0.00000e+00  3.47944e+00  2.84817e-04  3.60122e+02  3.60074e+02  5.18831e+00  5.22555e+00  5.17466e-01 -3.12015e+01  1.22249e+02  1.88685e+06 -1.98890e+06  1.13120e+03  0.00000e+00 -1.00919e+05 -4.68283e+03 -1.05602e+05  5.17488e-01  1.00000e+00  3.14323e+01  0.00000e+00  2.27070e+01 
 8.80092e-03  7.52587e-03  0.00000e+00  3.47944e+00  2.73859e-04  3.60123e+02  3.60074e+02  5.09545e+00  5.12979e+00  5.20919e-01 -3.41582e+01  1.27142e+02  2.09713e+06 -2.20864e+06  1.15521e+03  0.00000e+00 -1.10360e+05 -5.29539e+03 -1.15656e+05  5.20933e-01  1.00000e+00  3.44033e+01  0.00000e+00  2.59172e+01 
 9.00573e-03  7.76439e-03 -1.17014e-20  3.47944e+00  2.61994e-04  3.60124e+02  3.60075e+02  4.97870e+00  5.00993e+00  5.24506e-01 -3.87825e+01  1.32902e+02  2.35673e+06 -2.48388e+06  1.18145e+03  0.00000e+00 -1.25973e+05 -6.23912e+03 -1.32212e+05  5.24515e-01  1.00000e+00  3.90443e+01  0.00000e+00  2.98748e+01 
 9.21216e-03  8.00291e-03  0.00000e+00  3.47944e+00  2.48725e-04  3.60127e+02  3.60076e+02  4.86943e+00  4.89760e+00  5.28245e-01 -4.62184e+01  1.39994e+02  2.70058e+06 -2.84762e+06  1.21513e+03  0.00000e+00 -1.45827e+05 -7.77183e+03 -1.53599e+05  5.28250e-01  1.00000e+00  4.65006e+01  0.00000e+00  3.51652e+01 
 9.42012e-03  8.24144e-03  0.00000e+00  3.47944e+00  2.34179e-04  3.60132e+02  3.60076e+02  4.70415e+00  4.72837e+00  5.32154e-01 -5.90791e+01  1.48691e+02  3.14988e+06 -3.33362e+06  1.25313e+03  0.00000e+00 -1.82485e+05 -1.04648e+04 -1.92950e+05  5.32157e-01  1.00000e+00  5.93860e+01  0.00000e+00  4.20131e+01 
 9.62949e-03  8.47996e-03  0.00000e+00  3.47944e+00  2.17390e-04  3.60141e+02  3.60077e+02  4.56990e+00  4.59100e+00  5.36370e-01 -8.28294e+01  1.60177e+02  3.80941e+06 -4.04405e+06  1.30568e+03  0.00000e+00 -2.33336e+05 -1.56643e+04 -2.49001e+05  5.36366e-01  1.00000e+00  8.31688e+01  0.00000e+00  5.22092e+01 
 9.84019e-03  8.71849e-03  0.00000e+00  3.47944e+00  1.98451e-04  3.60160e+02  3.60078e+02  4.32266e+00  4.34001e+00  5.40738e-01 -1.32484e+02  1.75466e+02  4.78806e+06 -5.11736e+06  1.35843e+03  0.00000e+00 -3.27947e+05 -2.71925e+04 -3.55140e+05  5.40730e-01  1.00000e+00  1.32865e+02  0.00000e+00  6.72134e+01 
 1.00521e-02  8.95702e-03  0.00000e+00  3.47944e+00  1.75345e-04  3.60198e+02  3.60079e+02  4.12555e+00  4.14059e+00  5.45522e-01 -2.56928e+02  1.98592e+02  6.56420e+06 -7.02477e+06  1.45283e+03  0.00000e+00 -4.59109e+05 -5.90899e+04 -5.18199e+05  5.45517e-01  1.00000e+00  2.57372e+02  0.00000e+00  9.53323e+01 
 1.02653e-02  9.19555e-03  0.00000e+00  3.47944e+00  1.48133e-04  3.60304e+02  3.60080e+02  3.68217e+00  3.69494e+00  5.50586e-01 -6.72154e+02  2.35079e+02  1.01992e+07 -1.07695e+07  1.52744e+03  0.00000e+00 -5.68691e+05 -1.81107e+05 -7.49799e+05  5.50595e-01  1.00000e+00  6.72693e+02  0.00000e+00  1.56104e+02 
 1.04795e-02  9.43408e-03  0.00000e+00  3.47944e+00  1.17452e-04  3.60745e+02  3.60082e+02  3.13780e+00  3.14582e+00  5.58659e-01 -6.66402e+03  2.96495e+02  2.05520e+07 -1.89003e+07  1.68430e+03  1.81235e+06  3.46576e+06 -3.52118e+06 -5.54147e+04  5.58670e-01  1.00000e+00  6.66471e+03  3.64913e+03  3.91636e+02 
