# Code_Saturne plot output (1D profile)
#
# Iteration output: 2789
# Time output:      2.30013e+01
#
#COLUMN_TITLES: Distance | X | Y | Z | diameter_Field2 | temp_Field1 | temp_Field2 | Velocity_Field1[Z] | Velocity_Field2[Z] | vol_f_Field2 | mass_trans_Field1 | Xd_Field2 | BK | COAL | COMP | NUCL | W1 | MT | SMBR | ALPBB | CONDNUM | GAMA | GAMANUC | epsilon_Field1
 4.56474e-03  1.39645e-04  0.00000e+00  3.47944e+00  1.04278e-04  3.59646e+02  3.60052e+02  4.73911e+00  4.75871e+00  6.69026e-02  8.51110e+01  3.34181e+02  2.70077e+02 -7.20549e+05  2.04618e+03  0.00000e+00 -7.18232e+05  1.04399e+05 -6.13833e+05  6.69020e-02  1.00000e+00 -8.51036e+01  0.00000e+00  4.36742e-01 
 4.57812e-03  3.76525e-04  4.25872e-21  3.47944e+00  1.27441e-04  3.59648e+02  3.60052e+02  4.73859e+00  4.76376e+00  6.77817e-02  6.56338e+01  2.73442e+02  5.11623e+03 -5.19273e+05  1.67492e+03  0.00000e+00 -5.12481e+05  6.50211e+04 -4.47460e+05  6.77804e-02  1.00000e+00 -6.56280e+01  0.00000e+00  4.42360e-01 
 4.60371e-03  6.13858e-04  0.00000e+00  3.47944e+00  1.46384e-04  3.59651e+02  3.60052e+02  4.73720e+00  4.76683e+00  6.94765e-02  5.55913e+01  2.38056e+02  2.17269e+04 -4.22520e+05  1.45895e+03  0.00000e+00 -3.99334e+05  4.67758e+04 -3.52559e+05  6.94749e-02  1.00000e+00 -5.55863e+01  0.00000e+00  4.53358e-01 
 4.64138e-03  8.51483e-04  0.00000e+00  3.47944e+00  1.60724e-04  3.59657e+02  3.60052e+02  4.73515e+00  4.76806e+00  7.19696e-02  5.03825e+01  2.16816e+02  4.79896e+04 -3.76749e+05  1.32913e+03  0.00000e+00 -3.27431e+05  3.72733e+04 -2.90157e+05  7.19678e-02  1.00000e+00 -5.03779e+01  0.00000e+00  4.69956e-01 
 4.69084e-03  1.08931e-03  0.00000e+00  3.47944e+00  1.71388e-04  3.59665e+02  3.60052e+02  4.73239e+00  4.76763e+00  7.52855e-02  4.77376e+01  2.03326e+02  7.90904e+04 -3.57918e+05  1.24642e+03  0.00000e+00 -2.77581e+05  3.16607e+04 -2.45921e+05  7.52835e-02  1.00000e+00 -4.77332e+01  0.00000e+00  4.92501e-01 
 4.75174e-03  1.32727e-03  1.05001e-20  3.47944e+00  1.79180e-04  3.59675e+02  3.60052e+02  4.72892e+00  4.76573e+00  7.94606e-02  4.66240e+01  1.94483e+02  1.12648e+05 -3.56085e+05  1.19191e+03  0.00000e+00 -2.42245e+05  2.80233e+04 -2.14222e+05  7.94585e-02  1.00000e+00 -4.66196e+01  0.00000e+00  5.21487e-01 
 4.82366e-03  1.56534e-03  0.00000e+00  3.47944e+00  1.84815e-04  3.59687e+02  3.60052e+02  4.72470e+00  4.76251e+00  8.45287e-02  4.64768e+01  1.88554e+02  1.48504e+05 -3.66547e+05  1.15500e+03  0.00000e+00 -2.16887e+05  2.54592e+04 -1.91428e+05  8.45267e-02  1.00000e+00 -4.64723e+01  0.00000e+00  5.57573e-01 
 4.90611e-03  1.80349e-03  8.81027e-21  3.47944e+00  1.88883e-04  3.59701e+02  3.60052e+02  4.71967e+00  4.75808e+00  9.05275e-02  4.69481e+01  1.84493e+02  1.87523e+05 -3.87000e+05  1.12933e+03  0.00000e+00 -1.98347e+05  2.34960e+04 -1.74851e+05  9.05256e-02  1.00000e+00 -4.69433e+01  0.00000e+00  6.01585e-01 
 4.99859e-03  2.04170e-03  0.00000e+00  3.47944e+00  1.91843e-04  3.59717e+02  3.60052e+02  4.71376e+00  4.75245e+00  9.74855e-02  4.77939e+01  1.81646e+02  2.30850e+05 -4.16332e+05  1.11089e+03  0.00000e+00 -1.84370e+05  2.18692e+04 -1.62501e+05  9.74837e-02  1.00000e+00 -4.77888e+01  0.00000e+00  6.54533e-01 
 5.10055e-03  2.27996e-03  7.58893e-21  3.47944e+00  1.94042e-04  3.59735e+02  3.60052e+02  4.70689e+00  4.74564e+00  1.05424e-01  4.88265e+01  1.79588e+02  2.79579e+05 -4.54065e+05  1.09706e+03  0.00000e+00 -1.73389e+05  2.04251e+04 -1.52964e+05  1.05422e-01  1.00000e+00 -4.88211e+01  0.00000e+00  7.17624e-01 
 5.21143e-03  2.51826e-03  7.09702e-21  3.47944e+00  1.95743e-04  3.59754e+02  3.60052e+02  4.69895e+00  4.73761e+00  1.14349e-01  4.98878e+01  1.78027e+02  3.34617e+05 -5.00029e+05  1.08605e+03  0.00000e+00 -1.64326e+05  1.90728e+04 -1.45253e+05  1.14348e-01  1.00000e+00 -4.98820e+01  0.00000e+00  7.92283e-01 
 5.33068e-03  2.75659e-03  1.33300e-20  3.47944e+00  1.97146e-04  3.59773e+02  3.60052e+02  4.68980e+00  4.72828e+00  1.24252e-01  5.08350e+01  1.76760e+02  3.96610e+05 -5.54149e+05  1.07658e+03  0.00000e+00 -1.56463e+05  1.77584e+04 -1.38704e+05  1.24251e-01  1.00000e+00 -5.08287e+01  0.00000e+00  8.80164e-01 
 5.45775e-03  2.99495e-03  1.25651e-20  3.47944e+00  1.98412e-04  3.59793e+02  3.60052e+02  4.67928e+00  4.71751e+00  1.35102e-01  5.15365e+01  1.75633e+02  4.65884e+05 -6.16280e+05  1.06770e+03  0.00000e+00 -1.49328e+05  1.64519e+04 -1.32876e+05  1.35101e-01  1.00000e+00 -5.15297e+01  0.00000e+00  9.83156e-01 
 5.59212e-03  3.23333e-03  0.00000e+00  3.47944e+00  1.99669e-04  3.59814e+02  3.60052e+02  4.66721e+00  4.70515e+00  1.46837e-01  5.18735e+01  1.74527e+02  5.42398e+05 -6.86079e+05  1.05864e+03  0.00000e+00 -1.42623e+05  1.51399e+04 -1.27483e+05  1.46837e-01  1.00000e+00 -5.18661e+01  0.00000e+00  1.10339e+00 
 5.73326e-03  3.47172e-03  0.00000e+00  3.47944e+00  2.01023e-04  3.59835e+02  3.60052e+02  4.65337e+00  4.69101e+00  1.59376e-01  5.17469e+01  1.73352e+02  6.25688e+05 -7.62942e+05  1.04881e+03  0.00000e+00 -1.36206e+05  1.38208e+04 -1.22385e+05  1.59376e-01  1.00000e+00 -5.17389e+01  0.00000e+00  1.24322e+00 
 5.88069e-03  3.71014e-03 -5.35987e-21  3.47944e+00  2.02558e-04  3.59855e+02  3.60052e+02  4.63754e+00  4.67488e+00  1.72603e-01  5.10815e+01  1.72038e+02  7.14876e+05 -8.45913e+05  1.03775e+03  0.00000e+00 -1.29999e+05  1.25018e+04 -1.17497e+05  1.72605e-01  1.00000e+00 -5.10729e+01  0.00000e+00  1.40523e+00 
 6.03395e-03  3.94857e-03  5.10973e-21  3.47944e+00  2.04340e-04  3.59875e+02  3.60052e+02  4.61947e+00  4.65651e+00  1.86390e-01  4.98360e+01  1.70538e+02  8.08671e+05 -9.33740e+05  1.02515e+03  0.00000e+00 -1.24044e+05  1.11962e+04 -1.12847e+05  1.86391e-01  1.00000e+00 -4.98268e+01  0.00000e+00  1.59215e+00 
 6.19261e-03  4.18701e-03  0.00000e+00  3.47944e+00  2.06409e-04  3.59894e+02  3.60052e+02  4.59892e+00  4.63567e+00  2.00570e-01  4.80026e+01  1.68829e+02  9.05511e+05 -1.02485e+06  1.01084e+03  0.00000e+00 -1.18330e+05  9.92119e+03 -1.08409e+05  2.00572e-01  1.00000e+00 -4.79928e+01  0.00000e+00  1.80686e+00 
 6.35626e-03  4.42546e-03  0.00000e+00  3.47944e+00  2.08782e-04  3.59913e+02  3.60052e+02  4.57564e+00  4.61212e+00  2.14989e-01  4.56144e+01  1.66910e+02  1.00363e+06 -1.11762e+06  9.94796e+02  0.00000e+00 -1.12995e+05  8.69516e+03 -1.04300e+05  2.14990e-01  1.00000e+00 -4.56040e+01  0.00000e+00  2.05228e+00 
 6.52453e-03  4.66392e-03 -8.96437e-21  3.47944e+00  2.11445e-04  3.59930e+02  3.60052e+02  4.54943e+00  4.58565e+00  2.29455e-01  4.27338e+01  1.64808e+02  1.10140e+06 -1.21035e+06  9.77144e+02  0.00000e+00 -1.07978e+05  7.53619e+03 -1.00442e+05  2.29455e-01  1.00000e+00 -4.27229e+01  0.00000e+00  2.33152e+00 
 6.69707e-03  4.90238e-03  1.72236e-20  3.47944e+00  2.14361e-04  3.59947e+02  3.60052e+02  4.52010e+00  4.55608e+00  2.43834e-01  3.94545e+01  1.62567e+02  1.19730e+06 -1.30178e+06  9.58141e+02  0.00000e+00 -1.03527e+05  6.45832e+03 -9.70685e+04  2.43834e-01  1.00000e+00 -3.94431e+01  0.00000e+00  2.64760e+00 
 6.87356e-03  5.14086e-03  8.28595e-21  3.47944e+00  2.17454e-04  3.59962e+02  3.60052e+02  4.48754e+00  4.52327e+00  2.57939e-01  3.58787e+01  1.60255e+02  1.29051e+06 -1.39088e+06  9.38227e+02  0.00000e+00 -9.94272e+04  5.47269e+03 -9.39545e+04  2.57937e-01  1.00000e+00 -3.58669e+01  0.00000e+00  3.00413e+00 
 7.05370e-03  5.37934e-03 -1.59677e-20  3.47944e+00  2.20635e-04  3.59977e+02  3.60052e+02  4.45164e+00  4.48712e+00  2.71689e-01  3.21190e+01  1.57945e+02  1.38049e+06 -1.47753e+06  9.17837e+02  0.00000e+00 -9.61185e+04  4.58383e+03 -9.15347e+04  2.71695e-01  1.00000e+00 -3.21067e+01  0.00000e+00  3.40477e+00 
 7.23722e-03  5.61783e-03  0.00000e+00  3.47944e+00  2.23771e-04  3.59990e+02  3.60052e+02  4.41235e+00  4.44756e+00  2.84946e-01  2.82724e+01  1.55732e+02  1.46791e+06 -1.56202e+06  8.97486e+02  0.00000e+00 -9.32147e+04  3.79303e+03 -8.94217e+04  2.84951e-01  1.00000e+00 -2.82598e+01  0.00000e+00  3.85485e+00 
 7.42387e-03  5.85632e-03  0.00000e+00  3.47944e+00  2.26738e-04  3.60002e+02  3.60052e+02  4.36956e+00  4.40447e+00  2.97714e-01  2.44248e+01  1.53694e+02  1.55347e+06 -1.64572e+06  8.77649e+02  0.00000e+00 -9.13749e+04  3.09501e+03 -8.82799e+04  2.97719e-01  1.00000e+00 -2.44118e+01  0.00000e+00  4.35999e+00 
 7.61342e-03  6.09482e-03  0.00000e+00  3.47944e+00  2.29361e-04  3.60014e+02  3.60053e+02  4.32322e+00  4.35777e+00  3.09869e-01  2.06358e+01  1.51937e+02  1.63966e+06 -1.73052e+06  8.58851e+02  0.00000e+00 -9.00103e+04  2.48332e+03 -8.75270e+04  3.09873e-01  1.00000e+00 -2.06226e+01  0.00000e+00  4.92985e+00 
 7.80566e-03  6.33332e-03  0.00000e+00  3.47944e+00  2.31513e-04  3.60024e+02  3.60053e+02  4.27305e+00  4.30715e+00  3.21517e-01  1.69415e+01  1.50525e+02  1.72818e+06 -1.81919e+06  8.41431e+02  0.00000e+00 -9.01737e+04  1.94632e+03 -8.82274e+04  3.21521e-01  1.00000e+00 -1.69279e+01  0.00000e+00  5.57418e+00 
 8.00039e-03  6.57182e-03  0.00000e+00  3.47944e+00  2.32990e-04  3.60034e+02  3.60053e+02  4.21894e+00  4.25250e+00  3.32542e-01  1.33530e+01  1.49572e+02  1.82356e+06 -1.91534e+06  8.25836e+02  0.00000e+00 -9.09563e+04  1.47345e+03 -8.94828e+04  3.32546e-01  1.00000e+00 -1.33391e+01  0.00000e+00  6.31182e+00 
 8.19744e-03  6.81033e-03  1.31016e-20  3.47944e+00  2.33686e-04  3.60043e+02  3.60053e+02  4.16014e+00  4.19301e+00  3.43139e-01  9.85240e+00  1.49127e+02  1.92826e+06 -2.02315e+06  8.12245e+02  0.00000e+00 -9.40816e+04  1.05003e+03 -9.30316e+04  3.43145e-01  1.00000e+00 -9.83815e+00  0.00000e+00  7.16006e+00 
 8.39664e-03  7.04884e-03  0.00000e+00  3.47944e+00  2.33371e-04  3.60051e+02  3.60053e+02  4.09670e+00  4.12876e+00  3.53175e-01  6.40130e+00  1.49329e+02  2.04984e+06 -2.14889e+06  8.01061e+02  0.00000e+00 -9.82531e+04  6.63178e+02 -9.75899e+04  3.53182e-01  1.00000e+00 -6.38663e+00  0.00000e+00  8.15714e+00 
 8.59784e-03  7.28736e-03  0.00000e+00  3.47944e+00  2.31971e-04  3.60059e+02  3.60054e+02  4.02660e+00  4.05764e+00  3.62913e-01  2.92158e+00  1.50231e+02  2.19197e+06 -2.29905e+06  7.92340e+02  0.00000e+00 -1.06288e+05  2.95472e+02 -1.05992e+05  3.62924e-01  1.00000e+00 -2.90643e+00  0.00000e+00  9.33518e+00 
 8.80092e-03  7.52587e-03  0.00000e+00  3.47944e+00  2.29202e-04  3.60066e+02  3.60054e+02  3.95117e+00  3.98101e+00  3.72208e-01 -1.60392e+00  1.52047e+02  2.36860e+06 -2.48589e+06  7.86598e+02  0.00000e+00 -1.16508e+05 -1.63749e+02 -1.16672e+05  3.72221e-01  1.00000e+00  1.63226e+00  0.00000e+00  1.07788e+01 
 9.00573e-03  7.76439e-03 -1.17014e-20  3.47944e+00  2.25011e-04  3.60074e+02  3.60054e+02  3.86430e+00  3.89269e+00  3.81353e-01 -1.03572e+01  1.54880e+02  2.58729e+06 -2.72178e+06  7.83786e+02  0.00000e+00 -1.33704e+05 -1.03592e+03 -1.34740e+05  3.81374e-01  1.00000e+00  1.03865e+01  0.00000e+00  1.25558e+01 
 9.21216e-03  8.00291e-03  0.00000e+00  3.47944e+00  2.18955e-04  3.60082e+02  3.60055e+02  3.77226e+00  3.79895e+00  3.90243e-01 -2.10395e+01  1.59165e+02  2.87938e+06 -3.03675e+06  7.85160e+02  0.00000e+00 -1.56585e+05 -2.11040e+03 -1.58696e+05  3.90269e-01  1.00000e+00  2.10699e+01  0.00000e+00  1.48827e+01 
 9.42012e-03  8.24144e-03  0.00000e+00  3.47944e+00  2.10924e-04  3.60091e+02  3.60055e+02  3.65719e+00  3.68193e+00  3.99168e-01 -3.58904e+01  1.65226e+02  3.26876e+06 -3.46487e+06  7.90350e+02  0.00000e+00 -1.95328e+05 -3.65151e+03 -1.98979e+05  3.99204e-01  1.00000e+00  3.59223e+01  0.00000e+00  1.79488e+01 
 9.62949e-03  8.47996e-03  0.00000e+00  3.47944e+00  2.00169e-04  3.60104e+02  3.60055e+02  3.53817e+00  3.56072e+00  4.08043e-01 -5.97716e+01  1.74105e+02  3.84628e+06 -4.09659e+06  8.03041e+02  0.00000e+00 -2.49508e+05 -6.26652e+03 -2.55774e+05  4.08088e-01  1.00000e+00  5.98053e+01  0.00000e+00  2.24467e+01 
 9.84019e-03  8.71849e-03  0.00000e+00  3.47944e+00  1.86380e-04  3.60126e+02  3.60056e+02  3.36836e+00  3.38853e+00  4.17019e-01 -1.04925e+02  1.86989e+02  4.72359e+06 -5.06717e+06  8.20680e+02  0.00000e+00 -3.42761e+05 -1.15559e+04 -3.54317e+05  4.17087e-01  1.00000e+00  1.04961e+02  0.00000e+00  2.92331e+01 
 1.00521e-02  8.95702e-03  0.00000e+00  3.47944e+00  1.68251e-04  3.60167e+02  3.60056e+02  3.18740e+00  3.20516e+00  4.26295e-01 -2.10356e+02  2.07138e+02  6.30706e+06 -6.78158e+06  8.53319e+02  0.00000e+00 -4.73665e+05 -2.51038e+04 -4.98769e+05  4.26339e-01  1.00000e+00  2.10395e+02  0.00000e+00  4.17761e+01 
 1.02653e-02  9.19555e-03  0.00000e+00  3.47944e+00  1.45715e-04  3.60270e+02  3.60057e+02  2.87510e+00  2.88960e+00  4.36257e-01 -5.37636e+02  2.39178e+02  9.51059e+06 -1.01142e+07  8.82998e+02  0.00000e+00 -6.02758e+05 -7.23896e+04 -6.75147e+05  4.36293e-01  1.00000e+00  5.37680e+02  0.00000e+00  6.91471e+01 
 1.04795e-02  9.43408e-03  0.00000e+00  3.47944e+00  1.20519e-04  3.60671e+02  3.60058e+02  2.41221e+00  2.42061e+00  4.48637e-01 -5.51697e+03  2.89187e+02  1.83245e+07 -1.72696e+07  9.28414e+02  1.18647e+06  2.24231e+06 -2.30221e+06 -5.99010e+04  4.48668e-01  1.00000e+00  5.51702e+03  3.32521e+03  1.74018e+02 
