# Code_Saturne plot output (1D profile)
#
# Iteration output: 3936
# Time output:      2.30006e+01
#
#COLUMN_TITLES: Distance | X | Y | Z | diameter_Field2 | temp_Field1 | temp_Field2 | Velocity_Field1[Z] | Velocity_Field2[Z] | vol_f_Field2 | mass_trans_Field1 | Xd_Field2 | BK | COAL | COMP | NUCL | W1 | MT | SMBR | ALPBB | CONDNUM | GAMA | GAMANUC | epsilon_Field1
 4.56474e-03  1.39645e-04  0.00000e+00  3.47944e+00  1.13289e-04  3.59115e+02  3.60049e+02  4.42617e+00  4.44727e+00  3.63109e-02  9.05194e+01  3.07642e+02  8.09308e+02 -4.78432e+05  1.60538e+03  0.00000e+00 -4.76018e+05  1.40274e+05 -3.35743e+05  3.62943e-02  1.00000e+00 -9.06627e+01  0.00000e+00  4.48215e-01 
 4.57812e-03  3.76525e-04  4.25872e-21  3.47944e+00  1.33650e-04  3.59118e+02  3.60049e+02  4.42565e+00  4.45143e+00  3.69109e-02  7.36204e+01  2.60774e+02  6.30708e+03 -3.67313e+05  1.36029e+03  0.00000e+00 -3.59646e+05  9.51303e+04 -2.64516e+05  3.68947e-02  1.00000e+00 -7.37375e+01  0.00000e+00  4.53301e-01 
 4.60371e-03  6.13858e-04  0.00000e+00  3.47944e+00  1.50053e-04  3.59123e+02  3.60049e+02  4.42405e+00  4.45350e+00  3.80126e-02  6.48757e+01  2.32268e+02  1.87347e+04 -3.12012e+05  1.21165e+03  0.00000e+00 -2.92066e+05  7.25013e+04 -2.19565e+05  3.79962e-02  1.00000e+00 -6.49795e+01  0.00000e+00  4.63320e-01 
 4.64138e-03  8.51483e-04  0.00000e+00  3.47944e+00  1.62684e-04  3.59132e+02  3.60049e+02  4.42170e+00  4.45385e+00  3.96129e-02  6.05676e+01  2.14234e+02  3.56939e+04 -2.85679e+05  1.11742e+03  0.00000e+00 -2.48867e+05  5.99078e+04 -1.88959e+05  3.95962e-02  1.00000e+00 -6.06654e+01  0.00000e+00  4.78471e-01 
 4.69084e-03  1.08931e-03  0.00000e+00  3.47944e+00  1.72722e-04  3.59144e+02  3.60049e+02  4.41853e+00  4.45270e+00  4.17363e-02  5.87068e+01  2.01784e+02  5.55104e+04 -2.74988e+05  1.05218e+03  0.00000e+00 -2.18426e+05  5.19096e+04 -1.66516e+05  4.17190e-02  1.00000e+00 -5.88029e+01  0.00000e+00  4.99026e-01 
 4.75174e-03  1.32727e-03  1.05001e-20  3.47944e+00  1.80959e-04  3.59159e+02  3.60049e+02  4.41455e+00  4.45029e+00  4.44144e-02  5.83843e+01  1.92599e+02  7.77092e+04 -2.74318e+05  1.00385e+03  0.00000e+00 -1.95605e+05  4.63028e+04 -1.49302e+05  4.43965e-02  1.00000e+00 -5.84815e+01  0.00000e+00  5.25363e-01 
 4.82366e-03  1.56534e-03  0.00000e+00  3.47944e+00  1.87965e-04  3.59177e+02  3.60049e+02  4.40973e+00  4.44670e+00  4.76857e-02  5.91354e+01  1.85420e+02  1.02477e+05 -2.80972e+05  9.65884e+02  0.00000e+00 -1.77529e+05  4.20529e+04 -1.35476e+05  4.76672e-02  1.00000e+00 -5.92358e+01  0.00000e+00  5.58041e-01 
 4.90611e-03  1.80349e-03  8.81027e-21  3.47944e+00  1.94171e-04  3.59198e+02  3.60049e+02  4.40406e+00  4.44203e+00  5.16040e-02  6.06713e+01  1.79494e+02  1.30184e+05 -2.93562e+05  9.34366e+02  0.00000e+00 -1.62443e+05  3.85958e+04 -1.23847e+05  5.15842e-02  1.00000e+00 -6.07768e+01  0.00000e+00  5.97672e-01 
 4.99859e-03  2.04170e-03  0.00000e+00  3.47944e+00  1.99915e-04  3.59221e+02  3.60049e+02  4.39746e+00  4.43631e+00  5.62081e-02  6.27882e+01  1.74336e+02  1.61213e+05 -3.11205e+05  9.06786e+02  0.00000e+00 -1.49085e+05  3.56180e+04 -1.13467e+05  5.61872e-02  1.00000e+00 -6.29004e+01  0.00000e+00  6.45080e-01 
 5.10055e-03  2.27996e-03  7.58893e-21  3.47944e+00  2.05487e-04  3.59247e+02  3.60049e+02  4.38989e+00  4.42953e+00  6.15593e-02  6.53221e+01  1.69609e+02  1.95742e+05 -3.33361e+05  8.81356e+02  0.00000e+00 -1.36738e+05  3.29181e+04 -1.03820e+05  6.15370e-02  1.00000e+00 -6.54425e+01  0.00000e+00  7.01178e-01 
 5.21143e-03  2.51826e-03  7.09702e-21  3.47944e+00  2.11140e-04  3.59275e+02  3.60049e+02  4.38127e+00  4.42170e+00  6.76883e-02  6.76325e+01  1.65069e+02  2.33698e+05 -3.59389e+05  8.56841e+02  0.00000e+00 -1.24834e+05  3.01680e+04 -9.46662e+04  6.76650e-02  1.00000e+00 -6.77617e+01  0.00000e+00  7.67063e-01 
 5.33068e-03  2.75659e-03  1.33300e-20  3.47944e+00  2.17105e-04  3.59305e+02  3.60049e+02  4.37148e+00  4.41275e+00  7.46510e-02  6.98221e+01  1.60533e+02  2.74671e+05 -3.88743e+05  8.32218e+02  0.00000e+00 -1.13240e+05  2.74653e+04 -8.57750e+04  7.46271e-02  1.00000e+00 -6.99607e+01  0.00000e+00  8.44055e-01 
 5.45775e-03  2.99495e-03  1.25651e-20  3.47944e+00  2.23596e-04  3.59337e+02  3.60049e+02  4.36045e+00  4.40265e+00  8.24646e-02  7.17911e+01  1.55873e+02  3.17812e+05 -4.20557e+05  8.06880e+02  0.00000e+00 -1.01937e+05  2.48239e+04 -7.71135e+04  8.24394e-02  1.00000e+00 -7.19398e+01  0.00000e+00  9.33572e-01 
 5.59212e-03  3.23333e-03  0.00000e+00  3.47944e+00  2.30819e-04  3.59369e+02  3.60049e+02  4.34799e+00  4.39127e+00  9.11530e-02  7.33513e+01  1.50995e+02  3.61940e+05 -4.53881e+05  7.80275e+02  0.00000e+00 -9.11612e+04  2.22297e+04 -6.89315e+04  9.11268e-02  1.00000e+00 -7.35103e+01  0.00000e+00  1.03735e+00 
 5.73326e-03  3.47172e-03  0.00000e+00  3.47944e+00  2.38969e-04  3.59403e+02  3.60049e+02  4.33396e+00  4.37841e+00  1.00728e-01  7.43474e+01  1.45846e+02  4.05493e+05 -4.87561e+05  7.52146e+02  0.00000e+00 -8.13164e+04  1.96966e+04 -6.16199e+04  1.00700e-01  1.00000e+00 -7.45167e+01  0.00000e+00  1.15719e+00 
 5.88069e-03  3.71014e-03 -5.35987e-21  3.47944e+00  2.48204e-04  3.59437e+02  3.60049e+02  4.31815e+00  4.36394e+00  1.11115e-01  7.45991e+01  1.40420e+02  4.46884e+05 -5.20092e+05  7.22263e+02  0.00000e+00 -7.24857e+04  1.72509e+04 -5.52347e+04  1.11088e-01  1.00000e+00 -7.47783e+01  0.00000e+00  1.29545e+00 
 6.03395e-03  3.94857e-03  5.10973e-21  3.47944e+00  2.58648e-04  3.59471e+02  3.60049e+02  4.30037e+00  4.34759e+00  1.22258e-01  7.40302e+01  1.34750e+02  4.84259e+05 -5.50049e+05  6.91173e+02  0.00000e+00 -6.50997e+04  1.49325e+04 -5.01672e+04  1.22232e-01  1.00000e+00 -7.42184e+01  0.00000e+00  1.45383e+00 
 6.19261e-03  4.18701e-03  0.00000e+00  3.47944e+00  2.70352e-04  3.59506e+02  3.60049e+02  4.28039e+00  4.32921e+00  1.34050e-01  7.25803e+01  1.28916e+02  5.16324e+05 -5.76223e+05  6.59086e+02  0.00000e+00 -5.92400e+04  1.27756e+04 -4.64644e+04  1.34027e-01  1.00000e+00 -7.27763e+01  0.00000e+00  1.63498e+00 
 6.35626e-03  4.42546e-03  0.00000e+00  3.47944e+00  2.83282e-04  3.59540e+02  3.60049e+02  4.25798e+00  4.30857e+00  1.46375e-01  7.03195e+01  1.23032e+02  5.42163e+05 -5.97768e+05  6.26725e+02  0.00000e+00 -5.49780e+04  1.08199e+04 -4.41581e+04  1.46353e-01  1.00000e+00 -7.05220e+01  0.00000e+00  1.84139e+00 
 6.52453e-03  4.66392e-03 -8.96437e-21  3.47944e+00  2.97282e-04  3.59575e+02  3.60049e+02  4.23295e+00  4.28543e+00  1.59100e-01  6.73320e+01  1.17238e+02  5.61572e+05 -6.14431e+05  5.94596e+02  0.00000e+00 -5.22642e+04  9.08451e+03 -4.31797e+04  1.59077e-01  1.00000e+00 -6.75396e+01  0.00000e+00  2.07587e+00 
 6.69707e-03  4.90238e-03  1.72236e-20  3.47944e+00  3.12066e-04  3.59609e+02  3.60050e+02  4.20514e+00  4.25960e+00  1.72038e-01  6.37791e+01  1.11684e+02  5.74931e+05 -6.26307e+05  5.63673e+02  0.00000e+00 -5.08124e+04  7.58294e+03 -4.32294e+04  1.72009e-01  1.00000e+00 -6.39906e+01  0.00000e+00  2.34082e+00 
 6.87356e-03  5.14086e-03  8.28595e-21  3.47944e+00  3.27194e-04  3.59642e+02  3.60050e+02  4.17447e+00  4.23089e+00  1.85003e-01  5.98148e+01  1.06521e+02  5.83458e+05 -6.34241e+05  5.34551e+02  0.00000e+00 -5.02489e+04  6.30932e+03 -4.39396e+04  1.84963e-01  1.00000e+00 -6.00293e+01  0.00000e+00  2.63985e+00 
 7.05370e-03  5.37934e-03 -1.59677e-20  3.47944e+00  3.42148e-04  3.59676e+02  3.60050e+02  4.14082e+00  4.19914e+00  1.97871e-01  5.56347e+01  1.01865e+02  5.88625e+05 -6.39582e+05  5.07976e+02  0.00000e+00 -5.04492e+04  5.24863e+03 -4.52005e+04  1.97820e-01  1.00000e+00 -5.58517e+01  0.00000e+00  2.97573e+00 
 7.23722e-03  5.61783e-03  0.00000e+00  3.47944e+00  3.56306e-04  3.59709e+02  3.60050e+02  4.10420e+00  4.16422e+00  2.10463e-01  5.13633e+01  9.78180e+01  5.92540e+05 -6.43973e+05  4.84193e+02  0.00000e+00 -5.09488e+04  4.37630e+03 -4.65725e+04  2.10402e-01  1.00000e+00 -5.15825e+01  0.00000e+00  3.35419e+00 
 7.42387e-03  5.85632e-03  0.00000e+00  3.47944e+00  3.69119e-04  3.59741e+02  3.60050e+02  4.06444e+00  4.12591e+00  2.22768e-01  4.71190e+01  9.44229e+01  5.96777e+05 -6.49212e+05  4.63585e+02  0.00000e+00 -5.19719e+04  3.66280e+03 -4.83091e+04  2.22700e-01  1.00000e+00 -4.73411e+01  0.00000e+00  3.77965e+00 
 7.61342e-03  6.09482e-03  0.00000e+00  3.47944e+00  3.80010e-04  3.59774e+02  3.60050e+02  4.02154e+00  4.08405e+00  2.34611e-01  4.29252e+01  9.17168e+01  6.03424e+05 -6.56908e+05  4.46092e+02  0.00000e+00 -5.30387e+04  3.07915e+03 -4.99595e+04  2.34539e-01  1.00000e+00 -4.31508e+01  0.00000e+00  4.26224e+00 
 7.80566e-03  6.33332e-03  0.00000e+00  3.47944e+00  3.88648e-04  3.59806e+02  3.60050e+02  3.97504e+00  4.03817e+00  2.46140e-01  3.87965e+01  8.96788e+01  6.13486e+05 -6.68769e+05  4.31703e+02  0.00000e+00 -5.48519e+04  2.59540e+03 -5.22565e+04  2.46065e-01  1.00000e+00 -3.90268e+01  0.00000e+00  4.81011e+00 
 8.00039e-03  6.57182e-03  0.00000e+00  3.47944e+00  3.94646e-04  3.59839e+02  3.60050e+02  3.92503e+00  3.98801e+00  2.57182e-01  3.46401e+01  8.83160e+01  6.28942e+05 -6.86245e+05  4.20126e+02  0.00000e+00 -5.68832e+04  2.18601e+03 -5.46972e+04  2.57106e-01  1.00000e+00 -3.48765e+01  0.00000e+00  5.44290e+00 
 8.19744e-03  6.81033e-03  1.31016e-20  3.47944e+00  3.97950e-04  3.59871e+02  3.60051e+02  3.87005e+00  3.93237e+00  2.68014e-01  3.04304e+01  8.75832e+01  6.50261e+05 -7.10987e+05  4.11262e+02  0.00000e+00 -6.03150e+04  1.82959e+03 -5.84854e+04  2.67937e-01  1.00000e+00 -3.06746e+01  0.00000e+00  6.17391e+00 
 8.39664e-03  7.04884e-03  0.00000e+00  3.47944e+00  3.98295e-04  3.59904e+02  3.60051e+02  3.81068e+00  3.87208e+00  2.78372e-01  2.60340e+01  8.75078e+01  6.79940e+05 -7.44765e+05  4.04769e+02  0.00000e+00 -6.44199e+04  1.50828e+03 -6.29116e+04  2.78297e-01  1.00000e+00 -2.62885e+01  0.00000e+00  7.03816e+00 
 8.59784e-03  7.28736e-03  0.00000e+00  3.47944e+00  3.95769e-04  3.59938e+02  3.60051e+02  3.74444e+00  3.80468e+00  2.88549e-01  2.12697e+01  8.80668e+01  7.18815e+05 -7.89892e+05  4.00620e+02  0.00000e+00 -7.06773e+04  1.19968e+03 -6.94776e+04  2.88477e-01  1.00000e+00 -2.15372e+01  0.00000e+00  8.06189e+00 
 8.80092e-03  7.52587e-03  0.00000e+00  3.47944e+00  3.90077e-04  3.59973e+02  3.60051e+02  3.67381e+00  3.73215e+00  2.98359e-01  1.58849e+01  8.93523e+01  7.71371e+05 -8.50379e+05  3.98628e+02  0.00000e+00 -7.86099e+04  8.83703e+02 -7.77262e+04  2.98293e-01  1.00000e+00 -1.61685e+01  0.00000e+00  9.32307e+00 
 9.00573e-03  7.76439e-03 -1.17014e-20  3.47944e+00  3.81321e-04  3.60009e+02  3.60051e+02  3.59091e+00  3.64674e+00  3.08131e-01  9.51364e+00  9.14045e+01  8.40287e+05 -9.31174e+05  3.98608e+02  0.00000e+00 -9.04891e+04  5.31481e+02 -8.99576e+04  3.08071e-01  1.00000e+00 -9.81743e+00  0.00000e+00  1.08874e+01 
 9.21216e-03  8.00291e-03  0.00000e+00  3.47944e+00  3.68998e-04  3.60049e+02  3.60052e+02  3.50407e+00  3.55683e+00  3.17654e-01  1.60320e+00  9.44577e+01  9.35544e+05 -1.04207e+06  4.00968e+02  0.00000e+00 -1.06127e+05  1.04897e+02 -1.06022e+05  3.17601e-01  1.00000e+00 -1.93299e+00  0.00000e+00  1.29445e+01 
 9.42012e-03  8.24144e-03  0.00000e+00  3.47944e+00  3.53166e-04  3.60092e+02  3.60052e+02  3.39295e+00  3.44213e+00  3.27382e-01 -2.00550e+01  9.86929e+01  1.06520e+06 -1.19671e+06  4.05596e+02  0.00000e+00 -1.31100e+05 -1.05932e+03 -1.32159e+05  3.27330e-01  1.00000e+00  1.92546e+01  0.00000e+00  1.56639e+01 
 9.62949e-03  8.47996e-03  0.00000e+00  3.47944e+00  3.32795e-04  3.60142e+02  3.60053e+02  3.27807e+00  3.32246e+00  3.37069e-01 -5.43085e+01  1.04735e+02  1.25877e+06 -1.42550e+06  4.14428e+02  0.00000e+00 -1.66320e+05 -3.02880e+03 -1.69349e+05  3.37022e-01  1.00000e+00  5.34114e+01  0.00000e+00  1.96507e+01 
 9.84019e-03  8.71849e-03  0.00000e+00  3.47944e+00  3.07565e-04  3.60207e+02  3.60053e+02  3.11163e+00  3.15158e+00  3.46985e-01 -1.10382e+02  1.13327e+02  1.55315e+06 -1.78098e+06  4.25778e+02  0.00000e+00 -2.27407e+05 -6.51775e+03 -2.33925e+05  3.46945e-01  1.00000e+00  1.09351e+02  0.00000e+00  2.56035e+01 
 1.00521e-02  8.95702e-03  0.00000e+00  3.47944e+00  2.75412e-04  3.60304e+02  3.60054e+02  2.93944e+00  2.97485e+00  3.56995e-01 -2.20206e+02  1.26559e+02  2.08487e+06 -2.40138e+06  4.44475e+02  0.00000e+00 -3.16061e+05 -1.41658e+04 -3.30227e+05  3.56961e-01  1.00000e+00  2.18970e+02  0.00000e+00  3.66290e+01 
 1.02653e-02  9.19555e-03  0.00000e+00  3.47944e+00  2.36184e-04  3.60485e+02  3.60054e+02  2.63965e+00  2.67012e+00  3.68186e-01 -4.95379e+02  1.47581e+02  3.16453e+06 -3.59527e+06  4.60228e+02  0.00000e+00 -4.30277e+05 -3.61189e+04 -4.66395e+05  3.68151e-01  1.00000e+00  4.93808e+02  0.00000e+00  6.09236e+01 
 1.04795e-02  9.43408e-03  0.00000e+00  3.47944e+00  1.91194e-04  3.60995e+02  3.60055e+02  2.19380e+00  2.21286e+00  3.82679e-01 -4.74415e+03  1.82312e+02  6.15255e+06 -5.93692e+06  4.89488e+02  1.18019e+06  1.39632e+06 -1.42442e+06 -2.81001e+04  3.82650e-01  1.00000e+00  4.74199e+03  3.18649e+03  1.54547e+02 
