# Code_Saturne plot output (1D profile)
#
# Iteration output: 4226
# Time output:      2.30004e+01
#
#COLUMN_TITLES: Distance | X | Y | Z | diameter_Field2 | temp_Field1 | temp_Field2 | Velocity_Field1[Z] | Velocity_Field2[Z] | vol_f_Field2 | mass_trans_Field1 | Xd_Field2 | BK | COAL | COMP | NUCL | W1 | MT | SMBR | ALPBB | CONDNUM | GAMA | GAMANUC | epsilon_Field1
 4.56474e-03  1.39645e-04  0.00000e+00  3.47944e+00  5.54966e-05  3.59789e+02  3.60051e+02  4.74217e+00  4.75131e+00  6.95706e-02  1.39970e+02  6.27947e+02  5.03713e-08 -2.81859e+06  3.72838e+03  0.00000e+00 -2.81486e+06  8.15333e+05 -1.99953e+06  6.96021e-02  1.00000e+00 -1.39294e+02  0.00000e+00  4.21774e-01 
 4.57812e-03  3.76525e-04  4.25872e-21  3.47944e+00  9.40181e-05  3.59788e+02  3.60051e+02  4.74213e+00  4.76083e+00  7.05584e-02  6.87785e+01  3.70661e+02  3.23214e+01 -1.16490e+06  2.20207e+03  0.00000e+00 -1.16267e+06  2.33060e+05 -9.29607e+05  7.05874e-02  1.00000e+00 -6.84422e+01  0.00000e+00  4.27117e-01 
 4.60371e-03  6.13858e-04  0.00000e+00  3.47944e+00  1.24574e-04  3.59788e+02  3.60051e+02  4.74097e+00  4.76733e+00  7.23012e-02  4.82564e+01  2.79745e+02  4.17097e+03 -7.41743e+05  1.66377e+03  0.00000e+00 -7.35909e+05  1.20418e+05 -6.15491e+05  7.23299e-02  1.00000e+00 -4.80192e+01  0.00000e+00  4.37551e-01 
 4.64138e-03  8.51483e-04  0.00000e+00  3.47944e+00  1.48404e-04  3.59790e+02  3.60051e+02  4.73919e+00  4.77139e+00  7.47834e-02  3.94071e+01  2.34825e+02  2.73964e+04 -5.73863e+05  1.39786e+03  0.00000e+00 -5.45068e+05  7.98007e+04 -4.65268e+05  7.48113e-02  1.00000e+00 -3.92119e+01  0.00000e+00  4.53263e-01 
 4.69084e-03  1.08931e-03  0.00000e+00  3.47944e+00  1.66641e-04  3.59793e+02  3.60051e+02  4.73670e+00  4.77325e+00  7.80304e-02  3.50092e+01  2.09125e+02  6.93152e+04 -4.97341e+05  1.24569e+03  0.00000e+00 -4.26780e+05  6.05065e+04 -3.66274e+05  7.80574e-02  1.00000e+00 -3.48336e+01  0.00000e+00  4.74556e-01 
 4.75174e-03  1.32727e-03  1.05001e-20  3.47944e+00  1.80101e-04  3.59798e+02  3.60051e+02  4.73351e+00  4.77313e+00  8.20806e-02  3.28374e+01  1.93496e+02  1.18398e+05 -4.65519e+05  1.15298e+03  0.00000e+00 -3.45968e+05  4.99180e+04 -2.96050e+05  8.21070e-02  1.00000e+00 -3.26697e+01  0.00000e+00  5.01979e-01 
 4.82366e-03  1.56534e-03  0.00000e+00  3.47944e+00  1.89757e-04  3.59804e+02  3.60051e+02  4.72956e+00  4.77124e+00  8.69805e-02  3.19277e+01  1.83650e+02  1.68616e+05 -4.59987e+05  1.09445e+03  0.00000e+00 -2.90277e+05  4.34665e+04 -2.46810e+05  8.70072e-02  1.00000e+00 -3.17606e+01  0.00000e+00  5.36152e-01 
 4.90611e-03  1.80349e-03  8.81027e-21  3.47944e+00  1.96601e-04  3.59812e+02  3.60051e+02  4.72481e+00  4.76784e+00  9.27567e-02  3.17618e+01  1.77257e+02  2.19482e+05 -4.72145e+05  1.05624e+03  0.00000e+00 -2.51606e+05  3.91313e+04 -2.12475e+05  9.27839e-02  1.00000e+00 -3.15904e+01  0.00000e+00  5.77915e-01 
 4.99859e-03  2.04170e-03  0.00000e+00  3.47944e+00  2.01484e-04  3.59822e+02  3.60051e+02  4.71918e+00  4.76300e+00  9.94556e-02  3.20423e+01  1.72961e+02  2.72663e+05 -4.97827e+05  1.03037e+03  0.00000e+00 -2.24134e+05  3.59194e+04 -1.88215e+05  9.94833e-02  1.00000e+00 -3.18629e+01  0.00000e+00  6.28431e-01 
 5.10055e-03  2.27996e-03  7.58893e-21  3.47944e+00  2.05063e-04  3.59832e+02  3.60051e+02  4.71256e+00  4.75687e+00  1.07139e-01  3.25734e+01  1.69942e+02  3.29959e+05 -5.35007e+05  1.01194e+03  0.00000e+00 -2.04037e+05  3.32968e+04 -1.70740e+05  1.07168e-01  1.00000e+00 -3.23830e+01  0.00000e+00  6.88926e-01 
 5.21143e-03  2.51826e-03  7.09702e-21  3.47944e+00  2.07822e-04  3.59844e+02  3.60051e+02  4.70486e+00  4.74929e+00  1.15815e-01  3.31984e+01  1.67686e+02  3.92933e+05 -5.82501e+05  9.98002e+02  0.00000e+00 -1.88570e+05  3.09684e+04 -1.57602e+05  1.15844e-01  1.00000e+00 -3.29943e+01  0.00000e+00  7.61002e-01 
 5.33068e-03  2.75659e-03  1.33300e-20  3.47944e+00  2.10114e-04  3.59856e+02  3.60051e+02  4.69591e+00  4.74024e+00  1.25488e-01  3.37958e+01  1.65857e+02  4.62536e+05 -6.39606e+05  9.86416e+02  0.00000e+00 -1.76083e+05  2.87682e+04 -1.47315e+05  1.25519e-01  1.00000e+00 -3.35760e+01  0.00000e+00  8.46375e-01 
 5.45775e-03  2.99495e-03  1.25651e-20  3.47944e+00  2.12206e-04  3.59869e+02  3.60051e+02  4.68555e+00  4.72968e+00  1.36158e-01  3.42628e+01  1.64222e+02  5.39160e+05 -7.05767e+05  9.75733e+02  0.00000e+00 -1.65631e+05  2.66038e+04 -1.39027e+05  1.36191e-01  1.00000e+00 -3.40252e+01  0.00000e+00  9.47010e-01 
 5.59212e-03  3.23333e-03  0.00000e+00  3.47944e+00  2.14301e-04  3.59883e+02  3.60050e+02  4.67357e+00  4.71743e+00  1.47763e-01  3.45003e+01  1.62616e+02  6.22908e+05 -7.80187e+05  9.64796e+02  0.00000e+00 -1.56315e+05  2.44311e+04 -1.31884e+05  1.47796e-01  1.00000e+00 -3.42436e+01  0.00000e+00  1.06555e+00 
 5.73326e-03  3.47172e-03  0.00000e+00  3.47944e+00  2.16561e-04  3.59897e+02  3.60050e+02  4.65975e+00  4.70332e+00  1.60205e-01  3.44265e+01  1.60919e+02  7.12745e+05 -8.61555e+05  9.53138e+02  0.00000e+00 -1.47858e+05  2.22377e+04 -1.25620e+05  1.60238e-01  1.00000e+00 -3.41496e+01  0.00000e+00  1.20413e+00 
 5.88069e-03  3.71014e-03 -5.35987e-21  3.47944e+00  2.19104e-04  3.59911e+02  3.60050e+02  4.64385e+00  4.68714e+00  1.73331e-01  3.39652e+01  1.59052e+02  8.07367e+05 -9.48149e+05  9.40105e+02  0.00000e+00 -1.39841e+05  2.00289e+04 -1.19812e+05  1.73365e-01  1.00000e+00 -3.36677e+01  0.00000e+00  1.36542e+00 
 6.03395e-03  3.94857e-03  5.10973e-21  3.47944e+00  2.22019e-04  3.59925e+02  3.60051e+02  4.62559e+00  4.66862e+00  1.87003e-01  3.30932e+01  1.56964e+02  9.05117e+05 -1.03811e+06  9.25547e+02  0.00000e+00 -1.32072e+05  1.78355e+04 -1.14236e+05  1.87036e-01  1.00000e+00 -3.27753e+01  0.00000e+00  1.55248e+00 
 6.19261e-03  4.18701e-03  0.00000e+00  3.47944e+00  2.25362e-04  3.59939e+02  3.60051e+02  4.60472e+00  4.64752e+00  2.01115e-01  3.18029e+01  1.54636e+02  1.00378e+06 -1.12960e+06  9.09198e+02  0.00000e+00 -1.24915e+05  1.56853e+04 -1.09230e+05  2.01147e-01  1.00000e+00 -3.14651e+01  0.00000e+00  1.76825e+00 
 6.35626e-03  4.42546e-03  0.00000e+00  3.47944e+00  2.29147e-04  3.59952e+02  3.60051e+02  4.58099e+00  4.62359e+00  2.15496e-01  3.01207e+01  1.52082e+02  1.10119e+06 -1.22048e+06  8.91070e+02  0.00000e+00 -1.18405e+05  1.36190e+04 -1.04786e+05  2.15522e-01  1.00000e+00 -2.97640e+01  0.00000e+00  2.01579e+00 
 6.52453e-03  4.66392e-03 -8.96437e-21  3.47944e+00  2.33337e-04  3.59965e+02  3.60051e+02  4.55419e+00  4.59664e+00  2.29934e-01  2.80865e+01  1.49351e+02  1.19560e+06 -1.30882e+06  8.71274e+02  0.00000e+00 -1.12347e+05  1.16712e+04 -1.00676e+05  2.29952e-01  1.00000e+00 -2.77125e+01  0.00000e+00  2.29865e+00 
 6.69707e-03  4.90238e-03  1.72236e-20  3.47944e+00  2.37864e-04  3.59977e+02  3.60051e+02  4.52419e+00  4.56651e+00  2.44265e-01  2.57692e+01  1.46509e+02  1.28493e+06 -1.39301e+06  8.50457e+02  0.00000e+00 -1.07234e+05  9.87018e+03 -9.73635e+04  2.44283e-01  1.00000e+00 -2.53796e+01  0.00000e+00  2.61860e+00 
 6.87356e-03  5.14086e-03  8.28595e-21  3.47944e+00  2.42585e-04  3.59989e+02  3.60051e+02  4.49088e+00  4.53310e+00  2.58212e-01  2.32357e+01  1.43658e+02  1.36913e+06 -1.47211e+06  8.28866e+02  0.00000e+00 -1.02151e+05  8.23633e+03 -9.39147e+04  2.58234e-01  1.00000e+00 -2.28321e+01  0.00000e+00  2.97965e+00 
 7.05370e-03  5.37934e-03 -1.59677e-20  3.47944e+00  2.47357e-04  3.60000e+02  3.60051e+02  4.45421e+00  4.49634e+00  2.71701e-01  2.05750e+01  1.40887e+02  1.44798e+06 -1.54634e+06  8.07447e+02  0.00000e+00 -9.75508e+04  6.77769e+03 -9.07731e+04  2.71726e-01  1.00000e+00 -2.01590e+01  0.00000e+00  3.38472e+00 
 7.23722e-03  5.61783e-03  0.00000e+00  3.47944e+00  2.51981e-04  3.60010e+02  3.60051e+02  4.41419e+00  4.45617e+00  2.84679e-01  1.78552e+01  1.38302e+02  1.52302e+06 -1.61741e+06  7.86581e+02  0.00000e+00 -9.36043e+04  5.48980e+03 -8.81145e+04  2.84702e-01  1.00000e+00 -1.74279e+01  0.00000e+00  3.83996e+00 
 7.42387e-03  5.85632e-03  0.00000e+00  3.47944e+00  2.56272e-04  3.60020e+02  3.60051e+02  4.37070e+00  4.41251e+00  2.97087e-01  1.51324e+01  1.35987e+02  1.59571e+06 -1.68695e+06  7.66888e+02  0.00000e+00 -9.04814e+04  4.36116e+03 -8.61202e+04  2.97111e-01  1.00000e+00 -1.46943e+01  0.00000e+00  4.35046e+00 
 7.61342e-03  6.09482e-03  0.00000e+00  3.47944e+00  2.59991e-04  3.60029e+02  3.60051e+02  4.32373e+00  4.36526e+00  3.08904e-01  1.24389e+01  1.34042e+02  1.66922e+06 -1.75819e+06  7.48715e+02  0.00000e+00 -8.82141e+04  3.37346e+03 -8.48406e+04  3.08931e-01  1.00000e+00 -1.19900e+01  0.00000e+00  4.92661e+00 
 7.80566e-03  6.33332e-03  0.00000e+00  3.47944e+00  2.62968e-04  3.60038e+02  3.60051e+02  4.27295e+00  4.31410e+00  3.20140e-01  9.78840e+00  1.32525e+02  1.74608e+06 -1.83380e+06  7.32543e+02  0.00000e+00 -8.69866e+04  2.50380e+03 -8.44828e+04  3.20165e-01  1.00000e+00 -9.32819e+00  0.00000e+00  5.57795e+00 
 8.00039e-03  6.57182e-03  0.00000e+00  3.47944e+00  2.64961e-04  3.60046e+02  3.60052e+02  4.21828e+00  4.25886e+00  3.30793e-01  7.17629e+00  1.31529e+02  1.83119e+06 -1.91856e+06  7.18507e+02  0.00000e+00 -8.66595e+04  1.72827e+03 -8.49312e+04  3.30816e-01  1.00000e+00 -6.70344e+00  0.00000e+00  6.32468e+00 
 8.19744e-03  6.81033e-03  1.31016e-20  3.47944e+00  2.65864e-04  3.60054e+02  3.60052e+02  4.15886e+00  4.19871e+00  3.40988e-01  4.57465e+00  1.31083e+02  1.92727e+06 -2.01626e+06  7.06870e+02  0.00000e+00 -8.82747e+04  1.01879e+03 -8.72559e+04  3.41011e-01  1.00000e+00 -4.08720e+00  0.00000e+00  7.18388e+00 
 8.39664e-03  7.04884e-03  0.00000e+00  3.47944e+00  2.65436e-04  3.60061e+02  3.60052e+02  4.09487e+00  4.13374e+00  3.50684e-01  1.93929e+00  1.31295e+02  2.04190e+06 -2.13372e+06  6.97673e+02  0.00000e+00 -9.11170e+04  3.48233e+02 -9.07688e+04  3.50707e-01  1.00000e+00 -1.43445e+00  0.00000e+00  8.19570e+00 
 8.59784e-03  7.28736e-03  0.00000e+00  3.47944e+00  2.63650e-04  3.60068e+02  3.60052e+02  4.02394e+00  4.06162e+00  3.60034e-01 -1.90196e+00  1.32185e+02  2.17882e+06 -2.27618e+06  6.91009e+02  0.00000e+00 -9.66672e+04 -7.19169e+02 -9.73864e+04  3.60061e-01  1.00000e+00  3.02098e+00  0.00000e+00  9.39310e+00 
 8.80092e-03  7.52587e-03  0.00000e+00  3.47944e+00  2.60223e-04  3.60075e+02  3.60052e+02  3.94789e+00  3.98408e+00  3.69049e-01 -8.57981e+00  1.33927e+02  2.35096e+06 -2.45635e+06  6.87192e+02  0.00000e+00 -1.04697e+05 -2.29436e+03 -1.06991e+05  3.69076e-01  1.00000e+00  9.75056e+00  0.00000e+00  1.08601e+01 
 9.00573e-03  7.76439e-03 -1.17014e-20  3.47944e+00  2.55083e-04  3.60083e+02  3.60053e+02  3.85973e+00  3.89420e+00  3.77868e-01 -1.65284e+01  1.36626e+02  2.56794e+06 -2.68661e+06  6.85844e+02  0.00000e+00 -1.17991e+05 -4.16438e+03 -1.22155e+05  3.77897e-01  1.00000e+00  1.77625e+01  0.00000e+00  1.26753e+01 
 9.21216e-03  8.00291e-03  0.00000e+00  3.47944e+00  2.47775e-04  3.60091e+02  3.60053e+02  3.76706e+00  3.79952e+00  3.86476e-01 -2.69216e+01  1.40657e+02  2.85955e+06 -2.99654e+06  6.88299e+02  0.00000e+00 -1.36303e+05 -6.66369e+03 -1.42967e+05  3.86504e-01  1.00000e+00  2.82370e+01  0.00000e+00  1.50527e+01 
 9.42012e-03  8.24144e-03  0.00000e+00  3.47944e+00  2.38242e-04  3.60102e+02  3.60054e+02  3.65001e+00  3.68016e+00  3.95109e-01 -4.20344e+01  1.46286e+02  3.25061e+06 -3.41909e+06  6.93928e+02  0.00000e+00 -1.67790e+05 -1.04320e+04 -1.78222e+05  3.95139e-01  1.00000e+00  4.34532e+01  0.00000e+00  1.81950e+01 
 9.62949e-03  8.47996e-03  0.00000e+00  3.47944e+00  2.25687e-04  3.60118e+02  3.60054e+02  3.52780e+00  3.55474e+00  4.03763e-01 -6.67855e+01  1.54426e+02  3.82779e+06 -4.04177e+06  7.07112e+02  0.00000e+00 -2.13281e+05 -1.69499e+04 -2.30231e+05  4.03790e-01  1.00000e+00  6.83447e+01  0.00000e+00  2.27782e+01 
 9.84019e-03  8.71849e-03  0.00000e+00  3.47944e+00  2.09836e-04  3.60144e+02  3.60055e+02  3.35313e+00  3.37708e+00  4.12448e-01 -1.13153e+02  1.66092e+02  4.69834e+06 -4.99417e+06  7.23787e+02  0.00000e+00 -2.95106e+05 -3.00046e+04 -3.25111e+05  4.12474e-01  1.00000e+00  1.14903e+02  0.00000e+00  2.96061e+01 
 1.00521e-02  8.95702e-03  0.00000e+00  3.47944e+00  1.88936e-04  3.60191e+02  3.60055e+02  3.17174e+00  3.19288e+00  4.21301e-01 -2.18948e+02  1.84468e+02  6.27573e+06 -6.68651e+06  7.54224e+02  0.00000e+00 -4.10020e+05 -6.27469e+04 -4.72767e+05  4.21324e-01  1.00000e+00  2.20993e+02  0.00000e+00  4.21822e+01 
 1.02653e-02  9.19555e-03  0.00000e+00  3.47944e+00  1.62479e-04  3.60306e+02  3.60056e+02  2.85992e+00  2.87858e+00  4.30696e-01 -5.37514e+02  2.14508e+02  9.54055e+06 -1.00623e+07  7.82967e+02  0.00000e+00 -5.20960e+05 -1.74421e+05 -6.95382e+05  4.30722e-01  1.00000e+00  5.40031e+02  0.00000e+00  6.99006e+01 
 1.04795e-02  9.43408e-03  0.00000e+00  3.47944e+00  1.30932e-04  3.60728e+02  3.60057e+02  2.39553e+00  2.40702e+00  4.43886e-01 -5.45595e+03  2.66196e+02  1.89365e+07 -1.79731e+07  8.44250e+02  2.42894e+06  3.39316e+06 -3.45667e+06 -6.35028e+04  4.43889e-01  1.00000e+00  5.45928e+03  3.33599e+03  1.76700e+02 
