# Code_Saturne plot output (1D profile)
#
# Iteration output: 4176
# Time output:      2.30009e+01
#
#COLUMN_TITLES: Distance | X | Y | Z | diameter_Field2 | temp_Field1 | temp_Field2 | Velocity_Field1[Z] | Velocity_Field2[Z] | vol_f_Field2 | mass_trans_Field1 | Xd_Field2 | BK | COAL | COMP | NUCL | W1 | MT | SMBR | ALPBB | CONDNUM | GAMA | GAMANUC | epsilon_Field1
 4.56474e-03  1.39645e-04  0.00000e+00  3.47944e+00  5.80988e-05  3.59712e+02  3.60051e+02  4.66726e+00  4.67672e+00  5.65189e-02  1.34033e+02  5.99830e+02  2.20509e-07 -1.87807e+06  3.43492e+03  0.00000e+00 -1.87463e+06  7.11152e+05 -1.16348e+06  5.65248e-02  1.00000e+00 -1.33673e+02  0.00000e+00  4.00850e-01 
 4.57812e-03  3.76525e-04  4.25872e-21  3.47944e+00  8.80211e-05  3.59712e+02  3.60051e+02  4.66701e+00  4.68369e+00  5.74419e-02  7.69241e+01  3.95921e+02  3.87062e+00 -9.42517e+05  2.26839e+03  0.00000e+00 -9.40245e+05  2.65083e+05 -6.75162e+05  5.74460e-02  1.00000e+00 -7.67153e+01  0.00000e+00  4.05879e-01 
 4.60371e-03  6.13858e-04  0.00000e+00  3.47944e+00  1.12793e-04  3.59713e+02  3.60051e+02  4.66578e+00  4.68851e+00  5.90756e-02  5.66023e+01  3.08967e+02  7.60807e+02 -6.38371e+05  1.77173e+03  0.00000e+00 -6.35839e+05  1.48007e+05 -4.87832e+05  5.90791e-02  1.00000e+00 -5.64476e+01  0.00000e+00  4.15729e-01 
 4.64138e-03  8.51483e-04  0.00000e+00  3.47944e+00  1.33100e-04  3.59716e+02  3.60051e+02  4.66390e+00  4.69147e+00  6.13948e-02  4.70395e+01  2.61827e+02  7.96516e+03 -5.04641e+05  1.50247e+03  0.00000e+00 -4.95173e+05  1.00297e+05 -3.94877e+05  6.13981e-02  1.00000e+00 -4.69097e+01  0.00000e+00  4.30566e-01 
 4.69084e-03  1.08931e-03  0.00000e+00  3.47944e+00  1.49825e-04  3.59721e+02  3.60051e+02  4.66131e+00  4.69274e+00  6.44221e-02  4.18443e+01  2.32600e+02  2.84798e+04 -4.38097e+05  1.33541e+03  0.00000e+00 -4.08282e+05  7.55331e+04 -3.32749e+05  6.44253e-02  1.00000e+00 -4.17271e+01  0.00000e+00  4.50722e-01 
 4.75174e-03  1.32727e-03  1.05001e-20  3.47944e+00  1.63119e-04  3.59728e+02  3.60051e+02  4.65800e+00  4.69238e+00  6.82069e-02  3.90356e+01  2.13644e+02  6.15106e+04 -4.07617e+05  1.22696e+03  0.00000e+00 -3.44880e+05  6.11259e+04 -2.83754e+05  6.82101e-02  1.00000e+00 -3.89239e+01  0.00000e+00  4.76636e-01 
 4.82366e-03  1.56534e-03  0.00000e+00  3.47944e+00  1.73223e-04  3.59737e+02  3.60051e+02  4.65394e+00  4.69045e+00  7.27799e-02  3.77439e+01  2.01182e+02  1.02276e+05 -4.00134e+05  1.15550e+03  0.00000e+00 -2.96702e+05  5.21549e+04 -2.44547e+05  7.27834e-02  1.00000e+00 -3.76331e+01  0.00000e+00  5.08940e-01 
 4.90611e-03  1.80349e-03  8.81027e-21  3.47944e+00  1.80639e-04  3.59747e+02  3.60051e+02  4.64909e+00  4.68702e+00  7.81959e-02  3.74363e+01  1.92923e+02  1.47623e+05 -4.09209e+05  1.10794e+03  0.00000e+00 -2.60479e+05  4.61661e+04 -2.14312e+05  7.81997e-02  1.00000e+00 -3.73227e+01  0.00000e+00  5.48396e-01 
 4.99859e-03  2.04170e-03  0.00000e+00  3.47944e+00  1.85970e-04  3.59760e+02  3.60051e+02  4.64338e+00  4.68220e+00  8.44896e-02  3.77592e+01  1.87392e+02  1.96929e+05 -4.31376e+05  1.07583e+03  0.00000e+00 -2.33371e+05  4.18553e+04 -1.91516e+05  8.44937e-02  1.00000e+00 -3.76401e+01  0.00000e+00  5.95965e-01 
 5.10055e-03  2.27996e-03  7.58893e-21  3.47944e+00  1.89785e-04  3.59773e+02  3.60051e+02  4.63673e+00  4.67606e+00  9.17064e-02  3.84699e+01  1.83626e+02  2.50976e+05 -4.64901e+05  1.05366e+03  0.00000e+00 -2.12872e+05  3.84922e+04 -1.74379e+05  9.17110e-02  1.00000e+00 -3.83429e+01  0.00000e+00  6.52806e-01 
 5.21143e-03  2.51826e-03  7.09702e-21  3.47944e+00  1.92545e-04  3.59788e+02  3.60051e+02  4.62905e+00  4.66859e+00  9.98738e-02  3.93791e+01  1.80994e+02  3.10960e+05 -5.08925e+05  1.03783e+03  0.00000e+00 -1.96927e+05  3.56550e+04 -1.61272e+05  9.98785e-02  1.00000e+00 -3.92421e+01  0.00000e+00  7.20264e-01 
 5.33068e-03  2.75659e-03  1.33300e-20  3.47944e+00  1.94608e-04  3.59805e+02  3.60051e+02  4.62021e+00  4.65981e+00  1.08987e-01  4.03270e+01  1.79075e+02  3.78051e+05 -5.62978e+05  1.02587e+03  0.00000e+00 -1.83901e+05  3.30989e+04 -1.50802e+05  1.08991e-01  1.00000e+00 -4.01783e+01  0.00000e+00  7.99948e-01 
 5.45775e-03  2.99495e-03  1.25651e-20  3.47944e+00  1.96252e-04  3.59821e+02  3.60051e+02  4.61007e+00  4.64947e+00  1.19083e-01  4.11891e+01  1.77574e+02  4.53110e+05 -6.27066e+05  1.01617e+03  0.00000e+00 -1.72939e+05  3.06734e+04 -1.42266e+05  1.19087e-01  1.00000e+00 -4.10269e+01  0.00000e+00  8.93698e-01 
 5.59212e-03  3.23333e-03  0.00000e+00  3.47944e+00  1.97688e-04  3.59839e+02  3.60051e+02  4.59844e+00  4.63753e+00  1.30116e-01  4.18372e+01  1.76285e+02  5.36604e+05 -7.00839e+05  1.00741e+03  0.00000e+00 -1.63227e+05  2.82985e+04 -1.34928e+05  1.30121e-01  1.00000e+00 -4.16599e+01  0.00000e+00  1.00362e+00 
 5.73326e-03  3.47172e-03  0.00000e+00  3.47944e+00  1.99084e-04  3.59857e+02  3.60051e+02  4.58513e+00  4.62386e+00  1.42036e-01  4.21662e+01  1.75049e+02  6.28497e+05 -7.83828e+05  9.98640e+02  0.00000e+00 -1.54332e+05  2.59353e+04 -1.28396e+05  1.42041e-01  1.00000e+00 -4.19728e+01  0.00000e+00  1.13208e+00 
 5.88069e-03  3.71014e-03 -5.35987e-21  3.47944e+00  2.00571e-04  3.59874e+02  3.60051e+02  4.56993e+00  4.60826e+00  1.54749e-01  4.20818e+01  1.73751e+02  7.28196e+05 -8.75125e+05  9.89262e+02  0.00000e+00 -1.45940e+05  2.35709e+04 -1.22369e+05  1.54755e-01  1.00000e+00 -4.18712e+01  0.00000e+00  1.28167e+00 
 6.03395e-03  3.94857e-03  5.10973e-21  3.47944e+00  2.02259e-04  3.59892e+02  3.60051e+02  4.55257e+00  4.59050e+00  1.68191e-01  4.15257e+01  1.72301e+02  8.34418e+05 -9.73683e+05  9.78605e+02  0.00000e+00 -1.38286e+05  2.12114e+04 -1.17075e+05  1.68197e-01  1.00000e+00 -4.12973e+01  0.00000e+00  1.45504e+00 
 6.19261e-03  4.18701e-03  0.00000e+00  3.47944e+00  2.04217e-04  3.59909e+02  3.60051e+02  4.53278e+00  4.57031e+00  1.82172e-01  4.04498e+01  1.70649e+02  9.45897e+05 -1.07768e+06  9.66185e+02  0.00000e+00 -1.30813e+05  1.88822e+04 -1.11931e+05  1.82178e-01  1.00000e+00 -4.02036e+01  0.00000e+00  1.65578e+00 
 6.35626e-03  4.42546e-03  0.00000e+00  3.47944e+00  2.06499e-04  3.59925e+02  3.60051e+02  4.51032e+00  4.54747e+00  1.96554e-01  3.88550e+01  1.68764e+02  1.06007e+06 -1.18503e+06  9.52094e+02  0.00000e+00 -1.24004e+05  1.66131e+04 -1.07391e+05  1.96560e-01  1.00000e+00 -3.85911e+01  0.00000e+00  1.88622e+00 
 6.52453e-03  4.66392e-03 -8.96437e-21  3.47944e+00  2.09111e-04  3.59941e+02  3.60051e+02  4.48496e+00  4.52176e+00  2.11103e-01  3.67579e+01  1.66656e+02  1.17514e+06 -1.29344e+06  9.36048e+02  0.00000e+00 -1.17363e+05  1.44381e+04 -1.02925e+05  2.11111e-01  1.00000e+00 -3.64771e+01  0.00000e+00  2.15001e+00 
 6.69707e-03  4.90238e-03  1.72236e-20  3.47944e+00  2.12041e-04  3.59956e+02  3.60051e+02  4.45647e+00  4.49295e+00  2.25664e-01  3.42348e+01  1.64354e+02  1.28883e+06 -1.40087e+06  9.18622e+02  0.00000e+00 -1.11125e+05  1.23927e+04 -9.87325e+04  2.25673e-01  1.00000e+00 -3.39380e+01  0.00000e+00  2.45008e+00 
 6.87356e-03  5.14086e-03  8.28595e-21  3.47944e+00  2.15235e-04  3.59970e+02  3.60051e+02  4.42471e+00  4.46086e+00  2.40115e-01  3.13653e+01  1.61915e+02  1.39952e+06 -1.50609e+06  8.99913e+02  0.00000e+00 -1.05668e+05  1.04990e+04 -9.51686e+04  2.40123e-01  1.00000e+00 -3.10538e+01  0.00000e+00  2.79007e+00 
 7.05370e-03  5.37934e-03 -1.59677e-20  3.47944e+00  2.18615e-04  3.59983e+02  3.60051e+02  4.38953e+00  4.42539e+00  2.54308e-01  2.82512e+01  1.59412e+02  1.50618e+06 -1.60809e+06  8.80401e+02  0.00000e+00 -1.01023e+05  8.77689e+03 -9.22459e+04  2.54314e-01  1.00000e+00 -2.79261e+01  0.00000e+00  3.17374e+00 
 7.23722e-03  5.61783e-03  0.00000e+00  3.47944e+00  2.22051e-04  3.59996e+02  3.60051e+02  4.35089e+00  4.38645e+00  2.68124e-01  2.49820e+01  1.56945e+02  1.60900e+06 -1.70709e+06  8.60325e+02  0.00000e+00 -9.72329e+04  7.23275e+03 -9.00001e+04  2.68130e-01  1.00000e+00 -2.46444e+01  0.00000e+00  3.60663e+00 
 7.42387e-03  5.85632e-03  0.00000e+00  3.47944e+00  2.25411e-04  3.60007e+02  3.60051e+02  4.30867e+00  4.34393e+00  2.81437e-01  2.16420e+01  1.54607e+02  1.70828e+06 -1.80347e+06  8.40474e+02  0.00000e+00 -9.43504e+04  5.86481e+03 -8.84856e+04  2.81445e-01  1.00000e+00 -2.12929e+01  0.00000e+00  4.09293e+00 
 7.61342e-03  6.09482e-03  0.00000e+00  3.47944e+00  2.28506e-04  3.60018e+02  3.60051e+02  4.26284e+00  4.29775e+00  2.94168e-01  1.82966e+01  1.52513e+02  1.80658e+06 -1.89953e+06  8.21249e+02  0.00000e+00 -9.21289e+04  4.66254e+03 -8.74664e+04  2.94176e-01  1.00000e+00 -1.79366e+01  0.00000e+00  4.64223e+00 
 7.80566e-03  6.33332e-03  0.00000e+00  3.47944e+00  2.31188e-04  3.60027e+02  3.60052e+02  4.21315e+00  4.24766e+00  3.06316e-01  1.49930e+01  1.50745e+02  1.90592e+06 -1.99774e+06  8.03294e+02  0.00000e+00 -9.10144e+04  3.60789e+03 -8.74065e+04  3.06325e-01  1.00000e+00 -1.46221e+01  0.00000e+00  5.26328e+00 
 8.00039e-03  6.57182e-03  0.00000e+00  3.47944e+00  2.33240e-04  3.60037e+02  3.60052e+02  4.15949e+00  4.19349e+00  3.17866e-01  1.17506e+01  1.49419e+02  2.01102e+06 -2.10269e+06  7.86907e+02  0.00000e+00 -9.08824e+04  2.67939e+03 -8.82030e+04  3.17876e-01  1.00000e+00 -1.13685e+01  0.00000e+00  5.97405e+00 
 8.19744e-03  6.81033e-03  1.31016e-20  3.47944e+00  2.34526e-04  3.60045e+02  3.60052e+02  4.10119e+00  4.13459e+00  3.28890e-01  8.56090e+00  1.48600e+02  2.12519e+06 -2.21852e+06  7.72542e+02  0.00000e+00 -9.25565e+04  1.85007e+03 -9.07064e+04  3.28901e-01  1.00000e+00 -8.16676e+00  0.00000e+00  6.79123e+00 
 8.39664e-03  7.04884e-03  0.00000e+00  3.47944e+00  2.34807e-04  3.60053e+02  3.60052e+02  4.03823e+00  4.07084e+00  3.39382e-01  5.39189e+00  1.48423e+02  2.25622e+06 -2.35269e+06  7.60390e+02  0.00000e+00 -9.57159e+04  1.09284e+03 -9.46230e+04  3.39394e-01  1.00000e+00 -4.98393e+00  0.00000e+00  7.75070e+00 
 8.59784e-03  7.28736e-03  0.00000e+00  3.47944e+00  2.33979e-04  3.60060e+02  3.60052e+02  3.96875e+00  4.00042e+00  3.49452e-01  2.17209e+00  1.48949e+02  2.40929e+06 -2.51171e+06  7.50740e+02  0.00000e+00 -1.01669e+05  3.73562e+02 -1.01296e+05  3.49465e-01  1.00000e+00 -1.74800e+00  0.00000e+00  8.88600e+00 
 8.80092e-03  7.52587e-03  0.00000e+00  3.47944e+00  2.31779e-04  3.60068e+02  3.60053e+02  3.89378e+00  3.92427e+00  3.59154e-01 -2.76246e+00  1.50364e+02  2.59752e+06 -2.70891e+06  7.43926e+02  0.00000e+00 -1.10641e+05 -7.74980e+02 -1.11416e+05  3.59170e-01  1.00000e+00  3.69204e+00  0.00000e+00  1.02721e+01 
 9.00573e-03  7.76439e-03 -1.17014e-20  3.47944e+00  2.28097e-04  3.60075e+02  3.60053e+02  3.80776e+00  3.83690e+00  3.68589e-01 -1.11174e+01  1.52792e+02  2.83242e+06 -2.95780e+06  7.39638e+02  0.00000e+00 -1.24646e+05 -2.51352e+03 -1.27160e+05  3.68606e-01  1.00000e+00  1.20938e+01  0.00000e+00  1.19891e+01 
 9.21216e-03  8.00291e-03  0.00000e+00  3.47944e+00  2.22496e-04  3.60083e+02  3.60053e+02  3.71609e+00  3.74360e+00  3.77788e-01 -2.15222e+01  1.56639e+02  3.14481e+06 -3.28999e+06  7.39266e+02  0.00000e+00 -1.44444e+05 -4.68943e+03 -1.49134e+05  3.77805e-01  1.00000e+00  2.25582e+01  0.00000e+00  1.42288e+01 
 9.42012e-03  8.24144e-03  0.00000e+00  3.47944e+00  2.14830e-04  3.60093e+02  3.60054e+02  3.60236e+00  3.62795e+00  3.86962e-01 -3.61989e+01  1.62230e+02  3.56345e+06 -3.74217e+06  7.42480e+02  0.00000e+00 -1.77984e+05 -7.84264e+03 -1.85827e+05  3.86981e-01  1.00000e+00  3.73111e+01  0.00000e+00  1.71957e+01 
 9.62949e-03  8.47996e-03  0.00000e+00  3.47944e+00  2.04405e-04  3.60106e+02  3.60054e+02  3.48075e+00  3.50364e+00  3.96137e-01 -5.99203e+01  1.70505e+02  4.17766e+06 -4.40594e+06  7.53455e+02  0.00000e+00 -2.27521e+05 -1.31931e+04 -2.40715e+05  3.96158e-01  1.00000e+00  6.11354e+01  0.00000e+00  2.14972e+01 
 9.84019e-03  8.71849e-03  0.00000e+00  3.47944e+00  1.90878e-04  3.60129e+02  3.60055e+02  3.31285e+00  3.33345e+00  4.05327e-01 -1.04547e+02  1.82591e+02  5.10710e+06 -5.42111e+06  7.68181e+02  0.00000e+00 -3.13240e+05 -2.39188e+04 -3.37159e+05  4.05353e-01  1.00000e+00  1.05903e+02  0.00000e+00  2.79474e+01 
 1.00521e-02  8.95702e-03  0.00000e+00  3.47944e+00  1.72793e-04  3.60171e+02  3.60055e+02  3.13347e+00  3.15189e+00  4.14712e-01 -2.07638e+02  2.01703e+02  6.78678e+06 -7.21373e+06  7.95617e+02  0.00000e+00 -4.26162e+05 -5.10138e+04 -4.77176e+05  4.14738e-01  1.00000e+00  2.09209e+02  0.00000e+00  3.98524e+01 
 1.02653e-02  9.19555e-03  0.00000e+00  3.47944e+00  1.50019e-04  3.60276e+02  3.60056e+02  2.82701e+00  2.84259e+00  4.24583e-01 -5.22191e+02  2.32327e+02  1.01972e+07 -1.06992e+07  8.22116e+02  0.00000e+00 -5.01227e+05 -1.43783e+05 -6.45010e+05  4.24616e-01  1.00000e+00  5.24094e+02  0.00000e+00  6.58805e+01 
 1.04795e-02  9.43408e-03  0.00000e+00  3.47944e+00  1.24344e-04  3.60676e+02  3.60057e+02  2.37138e+00  2.38158e+00  4.37987e-01 -5.22810e+03  2.80302e+02  1.95404e+07 -1.81985e+07  8.60461e+02  1.60123e+06  2.94398e+06 -3.02449e+06 -8.05157e+04  4.38001e-01  1.00000e+00  5.23052e+03  3.15433e+03  1.65583e+02 
