# Code_Saturne plot output (1D profile)
#
# Iteration output: 4514
# Time output:      2.30007e+01
#
#COLUMN_TITLES: Distance | X | Y | Z | diameter_Field2 | temp_Field1 | temp_Field2 | Velocity_Field1[Z] | Velocity_Field2[Z] | vol_f_Field2 | mass_trans_Field1 | Xd_Field2 | BK | COAL | COMP | NUCL | W1 | MT | SMBR | ALPBB | CONDNUM | GAMA | GAMANUC | epsilon_Field1
 4.56474e-03  1.39645e-04  0.00000e+00  3.47944e+00  2.18938e-04  3.59897e+02  3.60055e+02  5.13657e+00  5.18814e+00  1.52582e-01  3.08978e+01  1.59140e+02  3.50924e+05 -6.52002e+05  1.10481e+03  0.00000e+00 -2.99973e+05  6.07555e+03 -2.93898e+05  1.52584e-01  1.00000e+00 -3.06993e+01  0.00000e+00  6.66043e-01 
 4.57812e-03  3.76525e-04  4.25872e-21  3.47944e+00  2.29876e-04  3.59898e+02  3.60055e+02  5.13215e+00  5.18548e+00  1.54136e-01  2.90701e+01  1.51568e+02  3.80063e+05 -6.07477e+05  1.05326e+03  0.00000e+00 -2.26360e+05  5.38894e+03 -2.20971e+05  1.54140e-01  1.00000e+00 -2.88821e+01  0.00000e+00  6.74644e-01 
 4.60371e-03  6.13858e-04  0.00000e+00  3.47944e+00  2.36144e-04  3.59901e+02  3.60055e+02  5.12594e+00  5.17981e+00  1.56543e-01  2.81665e+01  1.47545e+02  4.03343e+05 -5.93150e+05  1.02564e+03  0.00000e+00 -1.88781e+05  5.00434e+03 -1.83777e+05  1.56545e-01  1.00000e+00 -2.79820e+01  0.00000e+00  6.91500e-01 
 4.64138e-03  8.51483e-04  0.00000e+00  3.47944e+00  2.39547e-04  3.59904e+02  3.60055e+02  5.12808e+00  5.18440e+00  1.59732e-01  2.78220e+01  1.45449e+02  4.27332e+05 -5.96928e+05  1.00988e+03  0.00000e+00 -1.68586e+05  4.77513e+03 -1.63810e+05  1.59732e-01  1.00000e+00 -2.76363e+01  0.00000e+00  7.17385e-01 
 4.69084e-03  1.08931e-03  0.00000e+00  3.47944e+00  2.41512e-04  3.59908e+02  3.60055e+02  5.12705e+00  5.18250e+00  1.63973e-01  2.76307e+01  1.44265e+02  4.55267e+05 -6.13025e+05  1.00407e+03  0.00000e+00 -1.56754e+05  4.58110e+03 -1.52173e+05  1.63977e-01  1.00000e+00 -2.74415e+01  0.00000e+00  7.53047e-01 
 4.75174e-03  1.32727e-03  1.05001e-20  3.47944e+00  2.42804e-04  3.59913e+02  3.60055e+02  5.12071e+00  5.17748e+00  1.69604e-01  2.76458e+01  1.43498e+02  4.88114e+05 -6.39448e+05  9.95808e+02  0.00000e+00 -1.50339e+05  4.40691e+03 -1.45932e+05  1.69604e-01  1.00000e+00 -2.74502e+01  0.00000e+00  7.98880e-01 
 4.82366e-03  1.56534e-03  0.00000e+00  3.47944e+00  2.43767e-04  3.59920e+02  3.60055e+02  5.11053e+00  5.16700e+00  1.76291e-01  2.76296e+01  1.42931e+02  5.25809e+05 -6.73657e+05  9.85395e+02  0.00000e+00 -1.46862e+05  4.21908e+03 -1.42643e+05  1.76299e-01  1.00000e+00 -2.74264e+01  0.00000e+00  8.54718e-01 
 4.90611e-03  1.80349e-03  8.81027e-21  3.47944e+00  2.44614e-04  3.59927e+02  3.60055e+02  5.10273e+00  5.15453e+00  1.83646e-01  2.74100e+01  1.42436e+02  5.68935e+05 -7.13618e+05  9.92770e+02  0.00000e+00 -1.43690e+05  4.00208e+03 -1.39688e+05  1.83675e-01  1.00000e+00 -2.71989e+01  0.00000e+00  9.22006e-01 
 4.99859e-03  2.04170e-03  0.00000e+00  3.47944e+00  2.45554e-04  3.59934e+02  3.60054e+02  5.10159e+00  5.15531e+00  1.91864e-01  2.72473e+01  1.41891e+02  6.18768e+05 -7.59691e+05  9.85157e+02  0.00000e+00 -1.39937e+05  3.79171e+03 -1.36146e+05  1.91897e-01  1.00000e+00 -2.70260e+01  0.00000e+00  1.00444e+00 
 5.10055e-03  2.27996e-03  7.58893e-21  3.47944e+00  2.46701e-04  3.59942e+02  3.60054e+02  5.09413e+00  5.14873e+00  2.01033e-01  2.69153e+01  1.41231e+02  6.74921e+05 -8.11822e+05  9.76654e+02  0.00000e+00 -1.35924e+05  3.55654e+03 -1.32368e+05  2.01053e-01  1.00000e+00 -2.66831e+01  0.00000e+00  1.10379e+00 
 5.21143e-03  2.51826e-03  7.09702e-21  3.47944e+00  2.48126e-04  3.59951e+02  3.60054e+02  5.08308e+00  5.13744e+00  2.11044e-01  2.63760e+01  1.40420e+02  7.35629e+05 -8.68870e+05  9.69278e+02  0.00000e+00 -1.32272e+05  3.29908e+03 -1.28973e+05  2.11053e-01  1.00000e+00 -2.61325e+01  0.00000e+00  1.21998e+00 
 5.33068e-03  2.75659e-03  1.33300e-20  3.47944e+00  2.49876e-04  3.59960e+02  3.60054e+02  5.07040e+00  5.12419e+00  2.21698e-01  2.56160e+01  1.39436e+02  7.99880e+05 -9.29520e+05  9.61330e+02  0.00000e+00 -1.28679e+05  3.02654e+03 -1.25652e+05  2.21704e-01  1.00000e+00 -2.53609e+01  0.00000e+00  1.35460e+00 
 5.45775e-03  2.99495e-03  1.25651e-20  3.47944e+00  2.51984e-04  3.59969e+02  3.60054e+02  5.05558e+00  5.10884e+00  2.32865e-01  2.46325e+01  1.38270e+02  8.66703e+05 -9.92685e+05  9.51550e+02  0.00000e+00 -1.25030e+05  2.74520e+03 -1.22285e+05  2.32871e-01  1.00000e+00 -2.43658e+01  0.00000e+00  1.50984e+00 
 5.59212e-03  3.23333e-03  0.00000e+00  3.47944e+00  2.54451e-04  3.59978e+02  3.60054e+02  5.03852e+00  5.09124e+00  2.44353e-01  2.34241e+01  1.36930e+02  9.35029e+05 -1.05701e+06  9.40387e+02  0.00000e+00 -1.21038e+05  2.46113e+03 -1.18577e+05  2.44357e-01  1.00000e+00 -2.31462e+01  0.00000e+00  1.68779e+00 
 5.73326e-03  3.47172e-03  0.00000e+00  3.47944e+00  2.57267e-04  3.59987e+02  3.60054e+02  5.01925e+00  5.07151e+00  2.56081e-01  2.20138e+01  1.35431e+02  1.00352e+06 -1.12156e+06  9.27812e+02  0.00000e+00 -1.17111e+05  2.18009e+03 -1.14931e+05  2.56087e-01  1.00000e+00 -2.17250e+01  0.00000e+00  1.89027e+00 
 5.88069e-03  3.71014e-03 -5.35987e-21  3.47944e+00  2.60381e-04  3.59996e+02  3.60054e+02  4.99744e+00  5.04928e+00  2.67835e-01  2.04239e+01  1.33811e+02  1.07153e+06 -1.18522e+06  9.13807e+02  0.00000e+00 -1.12779e+05  1.90777e+03 -1.10871e+05  2.67847e-01  1.00000e+00 -2.01250e+01  0.00000e+00  2.11994e+00 
 6.03395e-03  3.94857e-03  5.10973e-21  3.47944e+00  2.63732e-04  3.60005e+02  3.60054e+02  4.97298e+00  5.02441e+00  2.79503e-01  1.86937e+01  1.32111e+02  1.13792e+06 -1.24715e+06  8.98973e+02  0.00000e+00 -1.08333e+05  1.64885e+03 -1.06684e+05  2.79522e-01  1.00000e+00 -1.83853e+01  0.00000e+00  2.37812e+00 
 6.19261e-03  4.18701e-03  0.00000e+00  3.47944e+00  2.67225e-04  3.60013e+02  3.60054e+02  4.94581e+00  4.99684e+00  2.90944e-01  1.68597e+01  1.30385e+02  1.20227e+06 -1.30685e+06  8.83586e+02  0.00000e+00 -1.03691e+05  1.40660e+03 -1.02284e+05  2.90968e-01  1.00000e+00 -1.65426e+01  0.00000e+00  2.66678e+00 
 6.35626e-03  4.42546e-03  0.00000e+00  3.47944e+00  2.70762e-04  3.60021e+02  3.60055e+02  4.91591e+00  4.96654e+00  3.02134e-01  1.49692e+01  1.28682e+02  1.26446e+06 -1.36453e+06  8.68075e+02  0.00000e+00 -9.91982e+04  1.18340e+03 -9.80148e+04  3.02154e-01  1.00000e+00 -1.46439e+01  0.00000e+00  2.98836e+00 
 6.52453e-03  4.66392e-03 -8.96437e-21  3.47944e+00  2.74220e-04  3.60029e+02  3.60055e+02  4.88328e+00  4.93347e+00  3.13065e-01  1.30587e+01  1.27059e+02  1.32486e+06 -1.42104e+06  8.52527e+02  0.00000e+00 -9.53275e+04  9.79975e+02 -9.43476e+04  3.13084e-01  1.00000e+00 -1.27257e+01  0.00000e+00  3.34633e+00 
 6.69707e-03  4.90238e-03  1.72236e-20  3.47944e+00  2.77473e-04  3.60036e+02  3.60055e+02  4.84789e+00  4.89763e+00  3.23626e-01  1.11579e+01  1.25570e+02  1.38396e+06 -1.47670e+06  8.37567e+02  0.00000e+00 -9.18994e+04  7.96411e+02 -9.11030e+04  3.23641e-01  1.00000e+00 -1.08175e+01  0.00000e+00  3.74263e+00 
 6.87356e-03  5.14086e-03  8.28595e-21  3.47944e+00  2.80363e-04  3.60043e+02  3.60055e+02  4.80971e+00  4.85891e+00  3.33726e-01  9.28878e+00  1.24276e+02  1.44332e+06 -1.53274e+06  8.23407e+02  0.00000e+00 -8.85982e+04  6.31763e+02 -8.79664e+04  3.33742e-01  1.00000e+00 -8.94105e+00  0.00000e+00  4.18212e+00 
 7.05370e-03  5.37934e-03 -1.59677e-20  3.47944e+00  2.82778e-04  3.60049e+02  3.60055e+02  4.76867e+00  4.81729e+00  3.43388e-01  7.47125e+00  1.23215e+02  1.50399e+06 -1.59053e+06  8.10417e+02  0.00000e+00 -8.57326e+04  4.84485e+02 -8.52481e+04  3.43404e-01  1.00000e+00 -7.11593e+00  0.00000e+00  4.66910e+00 
 7.23722e-03  5.61783e-03  0.00000e+00  3.47944e+00  2.84573e-04  3.60055e+02  3.60055e+02  4.72467e+00  4.77260e+00  3.52607e-01  5.71393e+00  1.22438e+02  1.56804e+06 -1.65212e+06  7.98822e+02  0.00000e+00 -8.32872e+04  3.52531e+02 -8.29347e+04  3.52624e-01  1.00000e+00 -5.35057e+00  0.00000e+00  5.21176e+00 
 7.42387e-03  5.85632e-03  0.00000e+00  3.47944e+00  2.85667e-04  3.60060e+02  3.60055e+02  4.67759e+00  4.72473e+00  3.61443e-01  4.02124e+00  1.21970e+02  1.63694e+06 -1.71936e+06  7.88769e+02  0.00000e+00 -8.16304e+04  2.33648e+02 -8.13968e+04  3.61460e-01  1.00000e+00 -3.64901e+00  0.00000e+00  5.81787e+00 
 7.61342e-03  6.09482e-03  0.00000e+00  3.47944e+00  2.85920e-04  3.60065e+02  3.60055e+02  4.62720e+00  4.67341e+00  3.69873e-01  2.39093e+00  1.21863e+02  1.71371e+06 -1.79501e+06  7.80400e+02  0.00000e+00 -8.05178e+04  1.25582e+02 -8.03922e+04  3.69889e-01  1.00000e+00 -2.00877e+00  0.00000e+00  6.50179e+00 
 7.80566e-03  6.33332e-03  0.00000e+00  3.47944e+00  2.85300e-04  3.60070e+02  3.60056e+02  4.57298e+00  4.61810e+00  3.78005e-01  8.16073e-01  1.22128e+02  1.79986e+06 -1.88133e+06  7.73828e+02  0.00000e+00 -8.07019e+04  2.59055e+01 -8.06760e+04  3.78021e-01  1.00000e+00 -4.22565e-01  0.00000e+00  7.27568e+00 
 8.00039e-03  6.57182e-03  0.00000e+00  3.47944e+00  2.83666e-04  3.60074e+02  3.60056e+02  4.51481e+00  4.55863e+00  3.85771e-01 -1.70304e+00  1.22832e+02  1.89992e+06 -1.98226e+06  7.69139e+02  0.00000e+00 -8.15650e+04 -1.55149e+02 -8.17202e+04  3.85790e-01  1.00000e+00  2.56797e+00  0.00000e+00  8.16536e+00 
 8.19744e-03  6.81033e-03  1.31016e-20  3.47944e+00  2.81030e-04  3.60078e+02  3.60056e+02  4.45156e+00  4.49394e+00  3.93333e-01 -5.09718e+00  1.23985e+02  2.01585e+06 -2.10107e+06  7.66398e+02  0.00000e+00 -8.44477e+04 -3.58434e+02 -8.48062e+04  3.93353e-01  1.00000e+00  5.99268e+00  0.00000e+00  9.19102e+00 
 8.39664e-03  7.04884e-03  0.00000e+00  3.47944e+00  2.77197e-04  3.60081e+02  3.60056e+02  4.38384e+00  4.42456e+00  4.00592e-01 -8.63466e+00  1.25700e+02  2.15560e+06 -2.24482e+06  7.65762e+02  0.00000e+00 -8.84500e+04 -5.69566e+02 -8.90195e+04  4.00613e-01  1.00000e+00  9.56601e+00  0.00000e+00  1.04034e+01 
 8.59784e-03  7.28736e-03  0.00000e+00  3.47944e+00  2.72201e-04  3.60085e+02  3.60057e+02  4.30838e+00  4.34727e+00  4.07716e-01 -1.25450e+01  1.28008e+02  2.32300e+06 -2.41936e+06  7.67261e+02  0.00000e+00 -9.55955e+04 -8.05357e+02 -9.64009e+04  4.07738e-01  1.00000e+00  1.35185e+01  0.00000e+00  1.18412e+01 
 8.80092e-03  7.52587e-03  0.00000e+00  3.47944e+00  2.65767e-04  3.60089e+02  3.60057e+02  4.22836e+00  4.26518e+00  4.14654e-01 -1.71679e+01  1.31108e+02  2.53288e+06 -2.63911e+06  7.71560e+02  0.00000e+00 -1.05464e+05 -1.09146e+03 -1.06556e+05  4.14675e-01  1.00000e+00  1.81920e+01  0.00000e+00  1.36105e+01 
 9.00573e-03  7.76439e-03 -1.17014e-20  3.47944e+00  2.57912e-04  3.60093e+02  3.60057e+02  4.13416e+00  4.16874e+00  4.21564e-01 -2.31036e+01  1.35102e+02  2.79557e+06 -2.91767e+06  7.77938e+02  0.00000e+00 -1.21328e+05 -1.47094e+03 -1.22799e+05  4.21585e-01  1.00000e+00  2.41887e+01  0.00000e+00  1.58035e+01 
 9.21216e-03  8.00291e-03  0.00000e+00  3.47944e+00  2.48164e-04  3.60099e+02  3.60058e+02  4.03730e+00  4.06942e+00  4.28381e-01 -3.14111e+01  1.40410e+02  3.14620e+06 -3.28978e+06  7.88598e+02  0.00000e+00 -1.42795e+05 -2.02587e+03 -1.44821e+05  4.28400e-01  1.00000e+00  3.25730e+01  0.00000e+00  1.86896e+01 
 9.42012e-03  8.24144e-03  0.00000e+00  3.47944e+00  2.36508e-04  3.60106e+02  3.60058e+02  3.91137e+00  3.94077e+00  4.35344e-01 -4.42286e+01  1.47331e+02  3.61385e+06 -3.79463e+06  8.02198e+02  0.00000e+00 -1.79982e+05 -2.92101e+03 -1.82903e+05  4.35363e-01  1.00000e+00  4.54865e+01  0.00000e+00  2.25056e+01 
 9.62949e-03  8.47996e-03  0.00000e+00  3.47944e+00  2.22061e-04  3.60118e+02  3.60059e+02  3.78384e+00  3.80967e+00  4.42416e-01 -6.62643e+01  1.56918e+02  4.30313e+06 -4.53966e+06  8.25950e+02  0.00000e+00 -2.35707e+05 -4.55316e+03 -2.40260e+05  4.42430e-01  1.00000e+00  6.76515e+01  0.00000e+00  2.80915e+01 
 9.84019e-03  8.71849e-03  0.00000e+00  3.47944e+00  2.04568e-04  3.60138e+02  3.60059e+02  3.59520e+00  3.61786e+00  4.49615e-01 -1.09412e+02  1.70339e+02  5.34441e+06 -5.68839e+06  8.53298e+02  0.00000e+00 -3.43123e+05 -7.97832e+03 -3.51102e+05  4.49625e-01  1.00000e+00  1.10973e+02  0.00000e+00  3.63884e+01 
 1.00521e-02  8.95702e-03  0.00000e+00  3.47944e+00  1.81943e-04  3.60178e+02  3.60060e+02  3.41074e+00  3.43065e+00  4.57099e-01 -2.12711e+02  1.91523e+02  7.26334e+06 -7.78562e+06  9.01451e+02  0.00000e+00 -5.21378e+05 -1.70595e+04 -5.38438e+05  4.57113e-01  1.00000e+00  2.14544e+02  0.00000e+00  5.17999e+01 
 1.02653e-02  9.19555e-03  0.00000e+00  3.47944e+00  1.53351e-04  3.60280e+02  3.60061e+02  3.07053e+00  3.08717e+00  4.65181e-01 -5.44668e+02  2.27236e+02  1.13458e+07 -1.22037e+07  9.55642e+02  0.00000e+00 -8.56895e+05 -5.07017e+04 -9.07597e+05  4.65206e-01  1.00000e+00  5.46943e+02  0.00000e+00  8.56266e+01 
 1.04795e-02  9.43408e-03  0.00000e+00  3.47944e+00  1.17357e-04  3.60678e+02  3.60062e+02  2.58342e+00  2.59277e+00  4.77097e-01 -5.88378e+03  2.96936e+02  2.41886e+07 -2.46118e+07  1.08623e+03  2.46173e+06  2.03963e+06 -2.12828e+06 -8.86519e+04  4.77124e-01  1.00000e+00  5.88687e+03  3.45428e+03  2.15634e+02 
