# Code_Saturne plot output (1D profile)
#
# Iteration output: 2056
# Time output:      2.30021e+01
#
#COLUMN_TITLES: Distance | X | Y | Z | diameter_Field2 | temp_Field1 | temp_Field2 | Velocity_Field1[Z] | Velocity_Field2[Z] | vol_f_Field2 | mass_trans_Field1 | Xd_Field2 | BK | COAL | COMP | NUCL | W1 | MT | SMBR | ALPBB | CONDNUM | GAMA | GAMANUC | epsilon_Field1
 4.56474e-03  1.39645e-04  0.00000e+00  3.47944e+00  2.79360e-05  3.59104e+02  3.60050e+02  4.30321e+00  4.30567e+00  1.49508e-02  2.67898e+02  1.24762e+03  2.34580e-44 -2.91768e+06  6.39068e+03  0.00000e+00 -2.91129e+06  1.20623e+07  9.15104e+06  1.49487e-02  1.00000e+00 -2.67903e+02  0.00000e+00  3.94152e-01 
 4.57812e-03  3.76525e-04  4.25872e-21  3.47944e+00  4.99208e-05  3.59103e+02  3.60050e+02  4.30309e+00  4.30900e+00  1.61879e-02  1.27071e+02  6.98173e+02  1.21355e-11 -1.18461e+06  3.55814e+03  0.00000e+00 -1.18105e+06  2.95799e+06  1.77694e+06  1.61853e-02  1.00000e+00 -1.27073e+02  0.00000e+00  3.97978e-01 
 4.60371e-03  6.13858e-04  0.00000e+00  3.47944e+00  6.92340e-05  3.59105e+02  3.60050e+02  4.30191e+00  4.31169e+00  1.73470e-02  8.59147e+01  5.03413e+02  1.69573e-03 -7.31299e+05  2.56465e+03  0.00000e+00 -7.28735e+05  1.34580e+06  6.17066e+05  1.73441e-02  1.00000e+00 -8.59163e+01  0.00000e+00  4.05322e-01 
 4.64138e-03  8.51483e-04  0.00000e+00  3.47944e+00  8.56420e-05  3.59111e+02  3.60050e+02  4.30004e+00  4.31315e+00  1.88507e-02  6.96436e+01  4.06965e+02  3.00004e+00 -5.57178e+05  2.07433e+03  0.00000e+00 -5.55101e+05  8.11586e+05  2.56485e+05  1.88477e-02  1.00000e+00 -6.96450e+01  0.00000e+00  4.16402e-01 
 4.69084e-03  1.08931e-03  0.00000e+00  3.47944e+00  1.00169e-04  3.59121e+02  3.60050e+02  4.29743e+00  4.31350e+00  2.07061e-02  6.15626e+01  3.47945e+02  1.51974e+02 -4.73175e+05  1.77420e+03  0.00000e+00 -4.71249e+05  5.58416e+05  8.71669e+04  2.07030e-02  1.00000e+00 -6.15638e+01  0.00000e+00  4.31450e-01 
 4.75174e-03  1.32727e-03  1.05001e-20  3.47944e+00  1.13422e-04  3.59134e+02  3.60050e+02  4.29408e+00  4.31284e+00  2.29430e-02  5.72581e+01  3.07290e+02  1.66520e+03 -4.29458e+05  1.56725e+03  0.00000e+00 -4.26226e+05  4.13963e+05 -1.22631e+04  2.29399e-02  1.00000e+00 -5.72593e+01  0.00000e+00  4.50776e-01 
 4.82366e-03  1.56534e-03  0.00000e+00  3.47944e+00  1.25587e-04  3.59150e+02  3.60050e+02  4.28997e+00  4.31118e+00  2.55990e-02  5.51421e+01  2.77524e+02  8.12298e+03 -4.08781e+05  1.41547e+03  0.00000e+00 -3.99242e+05  3.22690e+05 -7.65523e+04  2.55959e-02  1.00000e+00 -5.51432e+01  0.00000e+00  4.74796e-01 
 4.90611e-03  1.80349e-03  8.81027e-21  3.47944e+00  1.36589e-04  3.59170e+02  3.60050e+02  4.28510e+00  4.30848e+00  2.87192e-02  5.45610e+01  2.55170e+02  2.43774e+04 -4.04359e+05  1.30119e+03  0.00000e+00 -3.78680e+05  2.61674e+05 -1.17006e+05  2.87162e-02  1.00000e+00 -5.45622e+01  0.00000e+00  5.04033e-01 
 4.99859e-03  2.04170e-03  0.00000e+00  3.47944e+00  1.46281e-04  3.59194e+02  3.60050e+02  4.27942e+00  4.30467e+00  3.23568e-02  5.52068e+01  2.38262e+02  5.36014e+04 -4.13389e+05  1.21443e+03  0.00000e+00 -3.58573e+05  2.19433e+05 -1.39140e+05  3.23538e-02  1.00000e+00 -5.52079e+01  0.00000e+00  5.39132e-01 
 5.10055e-03  2.27996e-03  7.58893e-21  3.47944e+00  1.54601e-04  3.59220e+02  3.60050e+02  4.27289e+00  4.29969e+00  3.65703e-02  5.68878e+01  2.25440e+02  9.61643e+04 -4.34654e+05  1.14827e+03  0.00000e+00 -3.37341e+05  1.89295e+05 -1.48046e+05  3.65675e-02  1.00000e+00 -5.68891e+01  0.00000e+00  5.80874e-01 
 5.21143e-03  2.51826e-03  7.09702e-21  3.47944e+00  1.61631e-04  3.59249e+02  3.60050e+02  4.26547e+00  4.29351e+00  4.14242e-02  5.94452e+01  2.15636e+02  1.50954e+05 -4.67618e+05  1.09726e+03  0.00000e+00 -3.15567e+05  1.67031e+05 -1.48537e+05  4.14216e-02  1.00000e+00 -5.94465e+01  0.00000e+00  6.30192e-01 
 5.33068e-03  2.75659e-03  1.33300e-20  3.47944e+00  1.67574e-04  3.59281e+02  3.60050e+02  4.25707e+00  4.28610e+00  4.69870e-02  6.27228e+01  2.07987e+02  2.16948e+05 -5.12064e+05  1.05702e+03  0.00000e+00 -2.94058e+05  1.49863e+05 -1.44195e+05  4.69846e-02  1.00000e+00 -6.27243e+01  0.00000e+00  6.88191e-01 
 5.45775e-03  2.99495e-03  1.25651e-20  3.47944e+00  1.72699e-04  3.59315e+02  3.60050e+02  4.24762e+00  4.27743e+00  5.33299e-02  6.65597e+01  2.01816e+02  2.93771e+05 -5.67930e+05  1.02406e+03  0.00000e+00 -2.73135e+05  1.35956e+05 -1.37178e+05  5.33278e-02  1.00000e+00 -6.65613e+01  0.00000e+00  7.56173e-01 
 5.59212e-03  3.23333e-03  0.00000e+00  3.47944e+00  1.77286e-04  3.59351e+02  3.60050e+02  4.23701e+00  4.26745e+00  6.05197e-02  7.07778e+01  1.96594e+02  3.81495e+05 -6.35108e+05  9.95721e+02  0.00000e+00 -2.52618e+05  1.24100e+05 -1.28518e+05  6.05179e-02  1.00000e+00 -7.07797e+01  0.00000e+00  8.35666e-01 
 5.73326e-03  3.47172e-03  0.00000e+00  3.47944e+00  1.81609e-04  3.59389e+02  3.60050e+02  4.22512e+00  4.25611e+00  6.86226e-02  7.45702e+01  1.91914e+02  4.80183e+05 -7.13316e+05  9.69898e+02  0.00000e+00 -2.32163e+05  1.12564e+05 -1.19599e+05  6.86213e-02  1.00000e+00 -7.45723e+01  0.00000e+00  9.28442e-01 
 5.88069e-03  3.71014e-03 -5.35987e-21  3.47944e+00  1.85907e-04  3.59427e+02  3.60050e+02  4.21178e+00  4.24331e+00  7.76825e-02  7.79442e+01  1.87477e+02  5.89345e+05 -8.01870e+05  9.45090e+02  0.00000e+00 -2.11579e+05  1.01532e+05 -1.10048e+05  7.76816e-02  1.00000e+00 -7.79464e+01  0.00000e+00  1.03657e+00 
 6.03395e-03  3.94857e-03  5.10973e-21  3.47944e+00  1.90387e-04  3.59467e+02  3.60050e+02  4.19685e+00  4.22891e+00  8.77369e-02  8.08499e+01  1.83067e+02  7.07601e+05 -8.99701e+05  9.20165e+02  0.00000e+00 -1.91180e+05  9.10532e+04 -1.00127e+05  8.77366e-02  1.00000e+00 -8.08524e+01  0.00000e+00  1.16239e+00 
 6.19261e-03  4.18701e-03  0.00000e+00  3.47944e+00  1.95246e-04  3.59506e+02  3.60050e+02  4.18008e+00  4.21263e+00  9.87750e-02  8.30241e+01  1.78510e+02  8.32657e+05 -1.00470e+06  8.94281e+02  0.00000e+00 -1.71147e+05  8.09852e+04 -9.01622e+04  9.87752e-02  1.00000e+00 -8.30268e+01  0.00000e+00  1.30862e+00 
 6.35626e-03  4.42546e-03  0.00000e+00  3.47944e+00  2.00677e-04  3.59546e+02  3.60050e+02  4.16128e+00  4.19439e+00  1.10789e-01  8.42514e+01  1.73680e+02  9.61111e+05 -1.11416e+06  8.66743e+02  0.00000e+00 -1.52180e+05  7.12872e+04 -8.08927e+04  1.10790e-01  1.00000e+00 -8.42542e+01  0.00000e+00  1.47822e+00 
 6.52453e-03  4.66392e-03 -8.96437e-21  3.47944e+00  2.06837e-04  3.59585e+02  3.60050e+02  4.14012e+00  4.17390e+00  1.23670e-01  8.43194e+01  1.68508e+02  1.08881e+06 -1.22405e+06  8.37242e+02  0.00000e+00 -1.34402e+05  6.20104e+04 -7.23918e+04  1.23671e-01  1.00000e+00 -8.43225e+01  0.00000e+00  1.67464e+00 
 6.69707e-03  4.90238e-03  1.72236e-20  3.47944e+00  2.13858e-04  3.59623e+02  3.60050e+02  4.11634e+00  4.15089e+00  1.37359e-01  8.31369e+01  1.62975e+02  1.21087e+06 -1.33064e+06  8.05704e+02  0.00000e+00 -1.18961e+05  5.32403e+04 -6.57212e+04  1.37360e-01  1.00000e+00 -8.31403e+01  0.00000e+00  1.90133e+00 
 6.87356e-03  5.14086e-03  8.28595e-21  3.47944e+00  2.21788e-04  3.59660e+02  3.60050e+02  4.08963e+00  4.12504e+00  1.51609e-01  8.06463e+01  1.57149e+02  1.32304e+06 -1.42919e+06  7.72445e+02  0.00000e+00 -1.05382e+05  4.51181e+04 -6.02637e+04  1.51611e-01  1.00000e+00 -8.06498e+01  0.00000e+00  2.16241e+00 
 7.05370e-03  5.37934e-03 -1.59677e-20  3.47944e+00  2.30629e-04  3.59697e+02  3.60050e+02  4.05968e+00  4.09604e+00  1.66340e-01  7.69717e+01  1.51125e+02  1.42132e+06 -1.51716e+06  7.38007e+02  0.00000e+00 -9.51050e+04  3.77443e+04 -5.73606e+04  1.66342e-01  1.00000e+00 -7.69754e+01  0.00000e+00  2.46160e+00 
 7.23722e-03  5.61783e-03  0.00000e+00  3.47944e+00  2.40215e-04  3.59732e+02  3.60050e+02  4.02628e+00  4.06367e+00  1.81164e-01  7.22471e+01  1.45094e+02  1.50454e+06 -1.59174e+06  7.03300e+02  0.00000e+00 -8.65006e+04  3.12309e+04 -5.52697e+04  1.81165e-01  1.00000e+00 -7.22508e+01  0.00000e+00  2.80397e+00 
 7.42387e-03  5.85632e-03  0.00000e+00  3.47944e+00  2.50360e-04  3.59765e+02  3.60050e+02  3.98916e+00  4.02762e+00  1.96066e-01  6.67626e+01  1.39215e+02  1.57199e+06 -1.65413e+06  6.69179e+02  0.00000e+00 -8.14624e+04  2.55863e+04 -5.58761e+04  1.96066e-01  1.00000e+00 -6.67664e+01  0.00000e+00  3.19361e+00 
 7.61342e-03  6.09482e-03  0.00000e+00  3.47944e+00  2.60622e-04  3.59798e+02  3.60050e+02  3.94833e+00  3.98784e+00  2.10571e-01  6.07421e+01  1.33734e+02  1.62766e+06 -1.70546e+06  6.36754e+02  0.00000e+00 -7.71570e+04  2.08225e+04 -5.63345e+04  2.10569e-01  1.00000e+00 -6.07460e+01  0.00000e+00  3.63838e+00 
 7.80566e-03  6.33332e-03  0.00000e+00  3.47944e+00  2.70664e-04  3.59830e+02  3.60050e+02  3.90346e+00  3.94394e+00  2.24846e-01  5.44622e+01  1.28773e+02  1.67396e+06 -1.75087e+06  6.06690e+02  0.00000e+00 -7.63017e+04  1.68362e+04 -5.94655e+04  2.24840e-01  1.00000e+00 -5.44662e+01  0.00000e+00  4.14430e+00 
 8.00039e-03  6.57182e-03  0.00000e+00  3.47944e+00  2.79827e-04  3.59861e+02  3.60050e+02  3.85473e+00  3.89604e+00  2.38380e-01  4.80739e+01  1.24556e+02  1.71927e+06 -1.79507e+06  5.79899e+02  0.00000e+00 -7.52255e+04  1.35580e+04 -6.16675e+04  2.38388e-01  1.00000e+00 -4.80779e+01  0.00000e+00  4.72680e+00 
 8.19744e-03  6.81033e-03  1.31016e-20  3.47944e+00  2.87798e-04  3.59891e+02  3.60051e+02  3.80131e+00  3.84321e+00  2.51604e-01  4.16840e+01  1.21107e+02  1.76661e+06 -1.84496e+06  5.56437e+02  0.00000e+00 -7.77978e+04  1.08300e+04 -6.69678e+04  2.51609e-01  1.00000e+00 -4.16881e+01  0.00000e+00  5.39728e+00 
 8.39664e-03  7.04884e-03  0.00000e+00  3.47944e+00  2.93866e-04  3.59920e+02  3.60051e+02  3.74362e+00  3.78581e+00  2.64001e-01  3.52825e+01  1.18607e+02  1.82712e+06 -1.90741e+06  5.36841e+02  0.00000e+00 -7.97509e+04  8.55620e+03 -7.11947e+04  2.64005e-01  1.00000e+00 -3.52866e+01  0.00000e+00  6.18818e+00 
 8.59784e-03  7.28736e-03  0.00000e+00  3.47944e+00  2.97931e-04  3.59950e+02  3.60051e+02  3.67942e+00  3.72152e+00  2.76178e-01  2.87599e+01  1.16989e+02  1.90247e+06 -1.98947e+06  5.20705e+02  0.00000e+00 -8.64730e+04  6.57623e+03 -7.98968e+04  2.76181e-01  1.00000e+00 -2.87641e+01  0.00000e+00  7.12180e+00 
 8.80092e-03  7.52587e-03  0.00000e+00  3.47944e+00  2.99289e-04  3.59979e+02  3.60051e+02  3.61036e+00  3.65195e+00  2.87586e-01  2.19241e+01  1.16459e+02  2.00830e+06 -2.10177e+06  5.08407e+02  0.00000e+00 -9.29549e+04  4.79275e+03 -8.81622e+04  2.87588e-01  1.00000e+00 -2.19285e+01  0.00000e+00  8.27000e+00 
 9.00573e-03  7.76439e-03 -1.17014e-20  3.47944e+00  2.98077e-04  3.60010e+02  3.60051e+02  3.53031e+00  3.57092e+00  2.98966e-01  1.44034e+01  1.16933e+02  2.14640e+06 -2.25368e+06  4.99293e+02  0.00000e+00 -1.06774e+05  3.04151e+03 -1.03732e+05  2.98969e-01  1.00000e+00 -1.44080e+01  0.00000e+00  9.68075e+00 
 9.21216e-03  8.00291e-03  0.00000e+00  3.47944e+00  2.93472e-04  3.60042e+02  3.60052e+02  3.44543e+00  3.48455e+00  3.09753e-01  5.66418e+00  1.18769e+02  2.34570e+06 -2.46837e+06  4.94068e+02  0.00000e+00 -1.22177e+05  1.17318e+03 -1.21004e+05  3.09754e-01  1.00000e+00 -5.66899e+00  0.00000e+00  1.15353e+01 
 9.42012e-03  8.24144e-03  0.00000e+00  3.47944e+00  2.85747e-04  3.60076e+02  3.60052e+02  3.33896e+00  3.37611e+00  3.20729e-01 -1.19021e+01  1.21980e+02  2.61650e+06 -2.76745e+06  4.91758e+02  0.00000e+00 -1.50456e+05 -2.44120e+03 -1.52897e+05  3.20732e-01  1.00000e+00  1.18928e+01  0.00000e+00  1.39722e+01 
 9.62949e-03  8.47996e-03  0.00000e+00  3.47944e+00  2.73620e-04  3.60117e+02  3.60052e+02  3.22832e+00  3.26292e+00  3.31444e-01 -4.60282e+01  1.27387e+02  3.03323e+06 -3.21956e+06  4.94537e+02  0.00000e+00 -1.85838e+05 -9.54587e+03 -1.95384e+05  3.31445e-01  1.00000e+00  4.60184e+01  0.00000e+00  1.75626e+01 
 9.84019e-03  8.71849e-03  0.00000e+00  3.47944e+00  2.56894e-04  3.60169e+02  3.60053e+02  3.07113e+00  3.10276e+00  3.42457e-01 -1.01162e+02  1.35683e+02  3.67186e+06 -3.92276e+06  5.00904e+02  0.00000e+00 -2.50394e+05 -2.16301e+04 -2.72024e+05  3.42459e-01  1.00000e+00  1.01151e+02  0.00000e+00  2.29710e+01 
 1.00521e-02  8.95702e-03  0.00000e+00  3.47944e+00  2.33266e-04  3.60250e+02  3.60053e+02  2.90136e+00  2.92950e+00  3.53456e-01 -2.10638e+02  1.49427e+02  4.84971e+06 -5.18105e+06  5.16576e+02  0.00000e+00 -3.30817e+05 -4.80589e+04 -3.78876e+05  3.53457e-01  1.00000e+00  2.10626e+02  0.00000e+00  3.30163e+01 
 1.02653e-02  9.19555e-03  0.00000e+00  3.47944e+00  2.02964e-04  3.60409e+02  3.60054e+02  2.61223e+00  2.63451e+00  3.65569e-01 -4.93599e+02  1.71739e+02  7.23080e+06 -7.61159e+06  5.30650e+02  0.00000e+00 -3.80268e+05 -1.25151e+05 -5.05420e+05  3.65571e-01  1.00000e+00  4.93585e+02  0.00000e+00  5.49869e+01 
 1.04795e-02  9.43408e-03  0.00000e+00  3.47944e+00  1.68327e-04  3.60889e+02  3.60055e+02  2.17498e+00  2.18740e+00  3.79068e-01 -4.80701e+03  2.07081e+02  1.37150e+07 -1.23219e+07  5.53768e+02  1.14871e+06  2.54231e+06 -2.57747e+06 -3.51635e+04  3.79070e-01  1.00000e+00  4.80699e+03  3.18540e+03  1.39668e+02 
