# Code_Saturne plot output (1D profile)
#
# Iteration output: 3926
# Time output:      2.30008e+01
#
#COLUMN_TITLES: Distance | X | Y | Z | diameter_Field2 | temp_Field1 | temp_Field2 | Velocity_Field1[Z] | Velocity_Field2[Z] | vol_f_Field2 | mass_trans_Field1 | Xd_Field2 | BK | COAL | COMP | NUCL | W1 | MT | SMBR | ALPBB | CONDNUM | GAMA | GAMANUC | epsilon_Field1
 4.56474e-03  1.39645e-04  0.00000e+00  3.47944e+00  3.33110e-05  3.59723e+02  3.60050e+02  4.58387e+00  4.58796e+00  4.00072e-02  1.98116e+02  1.04622e+03  1.11801e-32 -1.82159e+06  5.78932e+03  0.00000e+00 -1.81580e+06  2.48503e+06  6.69226e+05  4.00079e-02  1.00000e+00 -1.98206e+02  0.00000e+00  3.75113e-01 
 4.57812e-03  3.76525e-04  4.25872e-21  3.47944e+00  5.26470e-05  3.59722e+02  3.60050e+02  4.58393e+00  4.59201e+00  4.12293e-02  1.06582e+02  6.61969e+02  6.24588e-11 -8.66280e+05  3.65842e+03  0.00000e+00 -8.62622e+05  8.20858e+05 -4.17636e+04  4.12298e-02  1.00000e+00 -1.06631e+02  0.00000e+00  3.79245e-01 
 4.60371e-03  6.13858e-04  0.00000e+00  3.47944e+00  6.95223e-05  3.59722e+02  3.60050e+02  4.58300e+00  4.59500e+00  4.27499e-02  7.53482e+01  5.01287e+02  4.62445e-04 -5.62976e+05  2.77124e+03  0.00000e+00 -5.60205e+05  4.23824e+05 -1.36380e+05  4.27504e-02  1.00000e+00 -7.53829e+01  0.00000e+00  3.87324e-01 
 4.64138e-03  8.51483e-04  0.00000e+00  3.47944e+00  8.39750e-05  3.59723e+02  3.60050e+02  4.58144e+00  4.59682e+00  4.48656e-02  6.11562e+01  4.15012e+02  5.57677e-01 -4.32035e+05  2.29516e+03  0.00000e+00 -4.29739e+05  2.71371e+05 -1.58368e+05  4.48655e-02  1.00000e+00 -6.11845e+01  0.00000e+00  3.99512e-01 
 4.69084e-03  1.08931e-03  0.00000e+00  3.47944e+00  9.68649e-05  3.59727e+02  3.60050e+02  4.57923e+00  4.59758e+00  4.75684e-02  5.33076e+01  3.59786e+02  3.01926e+01 -3.63293e+05  1.99045e+03  0.00000e+00 -3.61273e+05  1.93422e+05 -1.67851e+05  4.75676e-02  1.00000e+00 -5.33326e+01  0.00000e+00  4.16068e-01 
 4.75174e-03  1.32727e-03  1.05001e-20  3.47944e+00  1.08699e-04  3.59732e+02  3.60050e+02  4.57635e+00  4.59738e+00  5.08897e-02  4.85131e+01  3.20617e+02  3.88266e+02 -3.23971e+05  1.77428e+03  0.00000e+00 -3.21809e+05  1.46628e+05 -1.75181e+05  5.08886e-02  1.00000e+00 -4.85362e+01  0.00000e+00  4.37387e-01 
 4.82366e-03  1.56534e-03  0.00000e+00  3.47944e+00  1.19672e-04  3.59739e+02  3.60050e+02  4.57278e+00  4.59625e+00  5.48709e-02  4.54752e+01  2.91219e+02  2.25185e+03 -3.01645e+05  1.61194e+03  0.00000e+00 -2.97781e+05  1.15787e+05 -1.81994e+05  5.48698e-02  1.00000e+00 -4.54974e+01  0.00000e+00  4.63996e-01 
 4.90611e-03  1.80349e-03  8.81027e-21  3.47944e+00  1.29755e-04  3.59749e+02  3.60050e+02  4.56847e+00  4.59409e+00  5.95576e-02  4.36058e+01  2.68587e+02  7.94026e+03 -2.90975e+05  1.48686e+03  0.00000e+00 -2.81548e+05  9.43435e+04 -1.87205e+05  5.95564e-02  1.00000e+00 -4.36277e+01  0.00000e+00  4.96566e-01 
 4.99859e-03  2.04170e-03  0.00000e+00  3.47944e+00  1.38802e-04  3.59760e+02  3.60050e+02  4.56338e+00  4.59086e+00  6.50128e-02  4.24807e+01  2.51081e+02  2.00580e+04 -2.89623e+05  1.38997e+03  0.00000e+00 -2.68175e+05  7.87114e+04 -1.89464e+05  6.50114e-02  1.00000e+00 -4.25028e+01  0.00000e+00  5.35937e-01 
 5.10055e-03  2.27996e-03  7.58893e-21  3.47944e+00  1.46651e-04  3.59772e+02  3.60050e+02  4.55744e+00  4.58644e+00  7.12968e-02  4.18556e+01  2.37643e+02  4.02501e+04 -2.96567e+05  1.31535e+03  0.00000e+00 -2.55001e+05  6.69342e+04 -1.88067e+05  7.12955e-02  1.00000e+00 -4.18783e+01  0.00000e+00  5.83180e-01 
 5.21143e-03  2.51826e-03  7.09702e-21  3.47944e+00  1.53216e-04  3.59786e+02  3.60050e+02  4.55057e+00  4.58077e+00  7.84626e-02  4.17340e+01  2.27461e+02  6.88064e+04 -3.11393e+05  1.25852e+03  0.00000e+00 -2.41328e+05  5.80479e+04 -1.83280e+05  7.84613e-02  1.00000e+00 -4.17578e+01  0.00000e+00  6.39484e-01 
 5.33068e-03  2.75659e-03  1.33300e-20  3.47944e+00  1.58523e-04  3.59802e+02  3.60050e+02  4.54266e+00  4.57374e+00  8.65505e-02  4.19638e+01  2.19846e+02  1.05311e+05 -3.33997e+05  1.21555e+03  0.00000e+00 -2.27471e+05  5.11434e+04 -1.76327e+05  8.65494e-02  1.00000e+00 -4.19891e+01  0.00000e+00  7.06413e-01 
 5.45775e-03  2.99495e-03  1.25651e-20  3.47944e+00  1.62703e-04  3.59818e+02  3.60050e+02  4.53360e+00  4.56527e+00  9.56118e-02  4.24037e+01  2.14198e+02  1.49257e+05 -3.64486e+05  1.18328e+03  0.00000e+00 -2.14046e+05  4.55812e+04 -1.68465e+05  9.56114e-02  1.00000e+00 -4.24309e+01  0.00000e+00  7.85602e-01 
 5.59212e-03  3.23333e-03  0.00000e+00  3.47944e+00  1.65945e-04  3.59835e+02  3.60050e+02  4.52323e+00  4.55527e+00  1.05642e-01  4.28859e+01  2.10013e+02  2.00499e+05 -4.02913e+05  1.15872e+03  0.00000e+00 -2.01256e+05  4.09095e+04 -1.60346e+05  1.05641e-01  1.00000e+00 -4.29155e+01  0.00000e+00  8.79151e-01 
 5.73326e-03  3.47172e-03  0.00000e+00  3.47944e+00  1.68461e-04  3.59853e+02  3.60050e+02  4.51139e+00  4.54350e+00  1.16663e-01  4.32802e+01  2.06876e+02  2.59114e+05 -4.49505e+05  1.13995e+03  0.00000e+00 -1.89251e+05  3.68290e+04 -1.52422e+05  1.16662e-01  1.00000e+00 -4.33126e+01  0.00000e+00  9.89384e-01 
 5.88069e-03  3.71014e-03 -5.35987e-21  3.47944e+00  1.70456e-04  3.59871e+02  3.60050e+02  4.49786e+00  4.52984e+00  1.28686e-01  4.34472e+01  2.04455e+02  3.25231e+05 -5.04440e+05  1.12480e+03  0.00000e+00 -1.78084e+05  3.31278e+04 -1.44956e+05  1.28682e-01  1.00000e+00 -4.34826e+01  0.00000e+00  1.11893e+00 
 6.03395e-03  3.94857e-03  5.10973e-21  3.47944e+00  1.72111e-04  3.59889e+02  3.60050e+02  4.48243e+00  4.51415e+00  1.41638e-01  4.32715e+01  2.02490e+02  3.99038e+05 -5.67634e+05  1.11176e+03  0.00000e+00 -1.67484e+05  2.96910e+04 -1.37793e+05  1.41633e-01  1.00000e+00 -4.33105e+01  0.00000e+00  1.27112e+00 
 6.19261e-03  4.18701e-03  0.00000e+00  3.47944e+00  1.73583e-04  3.59907e+02  3.60050e+02  4.46482e+00  4.49620e+00  1.55453e-01  4.26495e+01  2.00773e+02  4.80125e+05 -6.38779e+05  1.09966e+03  0.00000e+00 -1.57555e+05  2.64398e+04 -1.31115e+05  1.55449e-01  1.00000e+00 -4.26921e+01  0.00000e+00  1.44904e+00 
 6.35626e-03  4.42546e-03  0.00000e+00  3.47944e+00  1.75000e-04  3.59924e+02  3.60050e+02  4.44475e+00  4.47573e+00  1.69991e-01  4.15079e+01  1.99148e+02  5.67865e+05 -7.17136e+05  1.08752e+03  0.00000e+00 -1.48184e+05  2.33439e+04 -1.24840e+05  1.69986e-01  1.00000e+00 -4.15545e+01  0.00000e+00  1.65637e+00 
 6.52453e-03  4.66392e-03 -8.96437e-21  3.47944e+00  1.76459e-04  3.59940e+02  3.60050e+02  4.42194e+00  4.45248e+00  1.85111e-01  3.98157e+01  1.97501e+02  6.61333e+05 -8.01795e+05  1.07455e+03  0.00000e+00 -1.39387e+05  2.03959e+04 -1.18991e+05  1.85107e-01  1.00000e+00 -3.98662e+01  0.00000e+00  1.89731e+00 
 6.69707e-03  4.90238e-03  1.72236e-20  3.47944e+00  1.78034e-04  3.59956e+02  3.60050e+02  4.39608e+00  4.42616e+00  2.00669e-01  3.75829e+01  1.95754e+02  7.58885e+05 -8.91502e+05  1.06042e+03  0.00000e+00 -1.31557e+05  1.76056e+04 -1.13951e+05  2.00665e-01  1.00000e+00 -3.76375e+01  0.00000e+00  2.17545e+00 
 6.87356e-03  5.14086e-03  8.28595e-21  3.47944e+00  1.79756e-04  3.59971e+02  3.60050e+02  4.36691e+00  4.39651e+00  2.16388e-01  3.48405e+01  1.93879e+02  8.59316e+05 -9.84560e+05  1.04458e+03  0.00000e+00 -1.24199e+05  1.49938e+04 -1.09205e+05  2.16384e-01  1.00000e+00 -3.48990e+01  0.00000e+00  2.49587e+00 
 7.05370e-03  5.37934e-03 -1.59677e-20  3.47944e+00  1.81635e-04  3.59984e+02  3.60050e+02  4.33417e+00  4.36330e+00  2.32119e-01  3.16805e+01  1.91874e+02  9.60623e+05 -1.07953e+06  1.02750e+03  0.00000e+00 -1.17877e+05  1.25820e+04 -1.05295e+05  2.32115e-01  1.00000e+00 -3.17428e+01  0.00000e+00  2.86194e+00 
 7.23722e-03  5.61783e-03  0.00000e+00  3.47944e+00  1.83639e-04  3.59997e+02  3.60050e+02  4.29769e+00  4.32633e+00  2.47683e-01  2.81995e+01  1.89781e+02  1.06192e+06 -1.17542e+06  1.00894e+03  0.00000e+00 -1.12492e+05  1.03851e+04 -1.02107e+05  2.47679e-01  1.00000e+00 -2.82655e+01  0.00000e+00  3.27979e+00 
 7.42387e-03  5.85632e-03  0.00000e+00  3.47944e+00  1.85709e-04  3.60008e+02  3.60050e+02  4.25728e+00  4.28545e+00  2.62907e-01  2.45153e+01  1.87666e+02  1.16221e+06 -1.27139e+06  9.89666e+02  0.00000e+00 -1.08189e+05  8.41482e+03 -9.97737e+04  2.62904e-01  1.00000e+00 -2.45847e+01  0.00000e+00  3.75445e+00 
 7.61342e-03  6.09482e-03  0.00000e+00  3.47944e+00  1.87749e-04  3.60019e+02  3.60051e+02  4.21284e+00  4.24052e+00  2.77710e-01  2.07299e+01  1.85628e+02  1.26164e+06 -1.36788e+06  9.69837e+02  0.00000e+00 -1.05268e+05  6.66749e+03 -9.86008e+04  2.77708e-01  1.00000e+00 -2.08025e+01  0.00000e+00  4.29413e+00 
 7.80566e-03  6.33332e-03  0.00000e+00  3.47944e+00  1.89644e-04  3.60028e+02  3.60051e+02  4.16420e+00  4.19137e+00  2.91934e-01  1.69335e+01  1.83773e+02  1.36091e+06 -1.46543e+06  9.50265e+02  0.00000e+00 -1.03571e+05  5.13423e+03 -9.84371e+04  2.91933e-01  1.00000e+00 -1.70092e+01  0.00000e+00  4.90748e+00 
 8.00039e-03  6.57182e-03  0.00000e+00  3.47944e+00  1.91246e-04  3.60037e+02  3.60051e+02  4.11122e+00  4.13783e+00  3.05583e-01  1.31895e+01  1.82235e+02  1.46211e+06 -1.56657e+06  9.31299e+02  0.00000e+00 -1.03529e+05  3.79408e+03 -9.97350e+04  3.05582e-01  1.00000e+00 -1.32682e+01  0.00000e+00  5.60958e+00 
 8.19744e-03  6.81033e-03  1.31016e-20  3.47944e+00  1.92409e-04  3.60045e+02  3.60051e+02  4.05345e+00  4.07948e+00  3.18595e-01  9.52976e+00  1.81134e+02  1.56775e+06 -1.67396e+06  9.13713e+02  0.00000e+00 -1.05292e+05  2.62026e+03 -1.02671e+05  3.18596e-01  1.00000e+00 -9.61154e+00  0.00000e+00  6.41719e+00 
 8.39664e-03  7.04884e-03  0.00000e+00  3.47944e+00  1.92947e-04  3.60052e+02  3.60051e+02  3.99072e+00  4.01604e+00  3.31016e-01  5.95348e+00  1.80630e+02  1.68267e+06 -1.79278e+06  8.97804e+02  0.00000e+00 -1.09218e+05  1.58001e+03 -1.07638e+05  3.31017e-01  1.00000e+00 -6.03850e+00  0.00000e+00  7.36159e+00 
 8.59784e-03  7.28736e-03  0.00000e+00  3.47944e+00  1.92707e-04  3.60058e+02  3.60051e+02  3.92169e+00  3.94624e+00  3.42874e-01  2.41726e+00  1.80855e+02  1.81149e+06 -1.92847e+06  8.84265e+02  0.00000e+00 -1.16094e+05  6.33783e+02 -1.15460e+05  3.42877e-01  1.00000e+00 -2.50585e+00  0.00000e+00  8.47678e+00 
 8.80092e-03  7.52587e-03  0.00000e+00  3.47944e+00  1.91477e-04  3.60064e+02  3.60052e+02  3.84667e+00  3.87026e+00  3.54263e-01 -2.57857e+00  1.82018e+02  1.96358e+06 -2.09089e+06  8.73301e+02  0.00000e+00 -1.26431e+05 -5.88576e+02 -1.27020e+05  3.54266e-01  1.00000e+00  2.38904e+00  0.00000e+00  9.83222e+00 
 9.00573e-03  7.76439e-03 -1.17014e-20  3.47944e+00  1.89095e-04  3.60070e+02  3.60052e+02  3.76154e+00  3.78407e+00  3.65218e-01 -1.09426e+01  1.84312e+02  2.14822e+06 -2.29076e+06  8.65456e+02  0.00000e+00 -1.41674e+05 -2.59989e+03 -1.44274e+05  3.65220e-01  1.00000e+00  1.07438e+01  0.00000e+00  1.15054e+01 
 9.21216e-03  8.00291e-03  0.00000e+00  3.47944e+00  1.85244e-04  3.60076e+02  3.60052e+02  3.66941e+00  3.69065e+00  3.75916e-01 -2.10373e+01  1.88145e+02  2.38609e+06 -2.55093e+06  8.61710e+02  0.00000e+00 -1.63980e+05 -4.99850e+03 -1.68979e+05  3.75912e-01  1.00000e+00  2.08273e+01  0.00000e+00  1.36683e+01 
 9.42012e-03  8.24144e-03  0.00000e+00  3.47944e+00  1.79700e-04  3.60083e+02  3.60053e+02  3.55775e+00  3.57754e+00  3.86416e-01 -3.51628e+01  1.93951e+02  2.70205e+06 -2.90042e+06  8.61295e+02  0.00000e+00 -1.97503e+05 -8.40917e+03 -2.05912e+05  3.86409e-01  1.00000e+00  3.49385e+01  0.00000e+00  1.65435e+01 
 9.62949e-03  8.47996e-03  0.00000e+00  3.47944e+00  1.72057e-04  3.60094e+02  3.60053e+02  3.43521e+00  3.45285e+00  3.96912e-01 -5.82736e+01  2.02569e+02  3.15372e+06 -3.40032e+06  8.68184e+02  0.00000e+00 -2.45737e+05 -1.42021e+04 -2.59939e+05  3.96902e-01  1.00000e+00  5.80306e+01  0.00000e+00  2.06670e+01 
 9.84019e-03  8.71849e-03  0.00000e+00  3.47944e+00  1.62056e-04  3.60112e+02  3.60054e+02  3.27056e+00  3.28640e+00  4.07314e-01 -1.02947e+02  2.15071e+02  3.82416e+06 -4.14293e+06  8.77894e+02  0.00000e+00 -3.17887e+05 -2.59989e+04 -3.43886e+05  4.07306e-01  1.00000e+00  1.02679e+02  0.00000e+00  2.68402e+01 
 1.00521e-02  8.95702e-03  0.00000e+00  3.47944e+00  1.49023e-04  3.60149e+02  3.60054e+02  3.08947e+00  3.10383e+00  4.17802e-01 -2.08724e+02  2.33884e+02  4.98878e+06 -5.37795e+06  8.94691e+02  0.00000e+00 -3.88275e+05 -5.59502e+04 -4.44226e+05  4.17790e-01  1.00000e+00  2.08421e+02  0.00000e+00  3.80838e+01 
 1.02653e-02  9.19555e-03  0.00000e+00  3.47944e+00  1.33374e-04  3.60246e+02  3.60055e+02  2.79370e+00  2.80637e+00  4.28668e-01 -5.36324e+02  2.61328e+02  7.23414e+06 -7.55287e+06  8.97043e+02  0.00000e+00 -3.17836e+05 -1.56694e+05 -4.74530e+05  4.28658e-01  1.00000e+00  5.35971e+02  0.00000e+00  6.27916e+01 
 1.04795e-02  9.43408e-03  0.00000e+00  3.47944e+00  1.18290e-04  3.60641e+02  3.60056e+02  2.34296e+00  2.35183e+00  4.42627e-01 -5.29973e+03  2.94657e+02  1.27536e+07 -1.12549e+07  8.78373e+02  1.54685e+06  3.04646e+06 -3.11217e+06 -6.57106e+04  4.42589e-01  1.00000e+00  5.29932e+03  3.19940e+03  1.57307e+02 
