# Code_Saturne plot output (1D profile)
#
# Iteration output: 4869
# Time output:      2.30004e+01
#
#COLUMN_TITLES: Distance | X | Y | Z | diameter_Field2 | temp_Field1 | temp_Field2 | Velocity_Field1[Z] | Velocity_Field2[Z] | vol_f_Field2 | mass_trans_Field1 | Xd_Field2 | BK | COAL | COMP | NUCL | W1 | MT | SMBR | ALPBB | CONDNUM | GAMA | GAMANUC | epsilon_Field1
 4.56474e-03  1.39645e-04  0.00000e+00  3.47944e+00  3.61187e-04  3.59858e+02  3.60055e+02  5.15505e+00  5.23590e+00  2.11698e-01  2.87835e+01  9.64603e+01  2.13733e+05 -5.24010e+05  7.22039e+02  0.00000e+00 -3.09555e+05  5.94164e+03 -3.03613e+05  2.11704e-01  1.00000e+00 -2.87131e+01  0.00000e+00  1.31424e+00 
 4.57812e-03  3.76525e-04  4.25872e-21  3.47944e+00  3.90736e-04  3.59859e+02  3.60055e+02  5.15310e+00  5.24137e+00  2.12689e-01  2.59720e+01  8.91656e+01  2.01142e+05 -4.56184e+05  6.67944e+02  0.00000e+00 -2.54374e+05  4.93281e+03 -2.49441e+05  2.12693e-01  1.00000e+00 -2.59082e+01  0.00000e+00  1.32805e+00 
 4.60371e-03  6.13858e-04  0.00000e+00  3.47944e+00  4.14370e-04  3.59860e+02  3.60055e+02  5.15012e+00  5.24304e+00  2.14180e-01  2.39721e+01  8.40798e+01  1.92563e+05 -4.13332e+05  6.30400e+02  0.00000e+00 -2.20138e+05  4.26339e+03 -2.15875e+05  2.14185e-01  1.00000e+00 -2.39130e+01  0.00000e+00  1.35465e+00 
 4.64138e-03  8.51483e-04  0.00000e+00  3.47944e+00  4.36707e-04  3.59862e+02  3.60055e+02  5.14617e+00  5.24070e+00  2.16218e-01  2.22148e+01  7.97794e+01  1.85594e+05 -3.80073e+05  5.98337e+02  0.00000e+00 -1.93881e+05  3.71340e+03 -1.90168e+05  2.16222e-01  1.00000e+00 -2.21595e+01  0.00000e+00  1.39426e+00 
 4.69084e-03  1.08931e-03  0.00000e+00  3.47944e+00  4.60155e-04  3.59864e+02  3.60055e+02  5.14089e+00  5.23571e+00  2.18903e-01  2.05754e+01  7.57140e+01  1.78972e+05 -3.50623e+05  5.67679e+02  0.00000e+00 -1.71084e+05  3.22400e+03 -1.67860e+05  2.18906e-01  1.00000e+00 -2.05235e+01  0.00000e+00  1.44698e+00 
 4.75174e-03  1.32727e-03  1.05001e-20  3.47944e+00  4.85453e-04  3.59867e+02  3.60055e+02  5.13426e+00  5.22873e+00  2.22179e-01  1.90044e+01  7.17684e+01  1.72337e+05 -3.23264e+05  5.37725e+02  0.00000e+00 -1.50389e+05  2.78094e+03 -1.47608e+05  2.22182e-01  1.00000e+00 -1.89557e+01  0.00000e+00  1.51356e+00 
 4.82366e-03  1.56534e-03  0.00000e+00  3.47944e+00  5.12646e-04  3.59871e+02  3.60055e+02  5.12617e+00  5.21997e+00  2.26065e-01  1.75091e+01  6.79615e+01  1.65643e+05 -2.97715e+05  5.08693e+02  0.00000e+00 -1.31564e+05  2.38442e+03 -1.29179e+05  2.26068e-01  1.00000e+00 -1.74634e+01  0.00000e+00  1.59487e+00 
 4.90611e-03  1.80349e-03  8.81027e-21  3.47944e+00  5.41279e-04  3.59876e+02  3.60055e+02  5.11655e+00  5.20952e+00  2.30488e-01  1.61083e+01  6.43665e+01  1.59067e+05 -2.74122e+05  4.81182e+02  0.00000e+00 -1.14574e+05  2.03765e+03 -1.12537e+05  2.30490e-01  1.00000e+00 -1.60653e+01  0.00000e+00  1.69202e+00 
 4.99859e-03  2.04170e-03  0.00000e+00  3.47944e+00  5.70622e-04  3.59882e+02  3.60055e+02  5.10533e+00  5.19736e+00  2.35454e-01  1.48229e+01  6.10566e+01  1.52834e+05 -2.52818e+05  4.55757e+02  0.00000e+00 -9.95285e+04  1.74099e+03 -9.77875e+04  2.35455e-01  1.00000e+00 -1.47821e+01  0.00000e+00  1.80616e+00 
 5.10055e-03  2.27996e-03  7.58893e-21  3.47944e+00  5.99711e-04  3.59888e+02  3.60055e+02  5.09238e+00  5.18339e+00  2.40879e-01  1.36628e+01  5.80950e+01  1.47220e+05 -2.34041e+05  4.32892e+02  0.00000e+00 -8.63881e+04  1.49239e+03 -8.48958e+04  2.40881e-01  1.00000e+00 -1.36240e+01  0.00000e+00  1.93865e+00 
 5.21143e-03  2.51826e-03  7.09702e-21  3.47944e+00  6.27535e-04  3.59895e+02  3.60055e+02  5.07767e+00  5.16759e+00  2.46792e-01  1.26325e+01  5.55193e+01  1.42430e+05 -2.18012e+05  4.12846e+02  0.00000e+00 -7.51686e+04  1.28695e+03 -7.38816e+04  2.46793e-01  1.00000e+00 -1.25952e+01  0.00000e+00  2.09078e+00 
 5.33068e-03  2.75659e-03  1.33300e-20  3.47944e+00  6.53098e-04  3.59903e+02  3.60055e+02  5.06105e+00  5.14984e+00  2.53072e-01  1.17221e+01  5.33463e+01  1.38665e+05 -2.04725e+05  3.95704e+02  0.00000e+00 -6.56644e+04  1.11885e+03 -6.45456e+04  2.53071e-01  1.00000e+00 -1.16859e+01  0.00000e+00  2.26460e+00 
 5.45775e-03  2.99495e-03  1.25651e-20  3.47944e+00  6.75599e-04  3.59911e+02  3.60055e+02  5.04248e+00  5.13010e+00  2.59702e-01  1.09179e+01  5.15696e+01  1.35985e+05 -1.94141e+05  3.81472e+02  0.00000e+00 -5.77744e+04  9.81512e+02 -5.67929e+04  2.59704e-01  1.00000e+00 -1.08825e+01  0.00000e+00  2.46097e+00 
 5.59212e-03  3.23333e-03  0.00000e+00  3.47944e+00  6.94444e-04  3.59920e+02  3.60055e+02  5.02185e+00  5.10827e+00  2.66498e-01  1.01960e+01  5.01703e+01  1.34468e+05 -1.86043e+05  3.69919e+02  0.00000e+00 -5.12050e+04  8.68823e+02 -5.03361e+04  2.66505e-01  1.00000e+00 -1.01610e+01  0.00000e+00  2.68192e+00 
 5.73326e-03  3.47172e-03  0.00000e+00  3.47944e+00  7.09362e-04  3.59930e+02  3.60055e+02  4.99908e+00  5.08428e+00  2.73482e-01  9.53782e+00  4.91152e+01  1.34082e+05 -1.80283e+05  3.60879e+02  0.00000e+00 -4.58392e+04  7.75137e+02 -4.50641e+04  2.73494e-01  1.00000e+00 -9.50285e+00  0.00000e+00  2.92929e+00 
 5.88069e-03  3.71014e-03 -5.35987e-21  3.47944e+00  7.20301e-04  3.59941e+02  3.60055e+02  4.97412e+00  5.05807e+00  2.80566e-01  8.91818e+00  4.83694e+01  1.34799e+05 -1.76631e+05  3.54038e+02  0.00000e+00 -4.14779e+04  6.95556e+02 -4.07823e+04  2.80579e-01  1.00000e+00 -8.88295e+00  0.00000e+00  3.20510e+00 
 6.03395e-03  3.94857e-03  5.10973e-21  3.47944e+00  7.27439e-04  3.59952e+02  3.60055e+02  4.94683e+00  5.02954e+00  2.87811e-01  8.31768e+00  4.78949e+01  1.36540e+05 -1.74934e+05  3.49096e+02  0.00000e+00 -3.80450e+04  6.25972e+02 -3.74190e+04  2.87823e-01  1.00000e+00 -8.28187e+00  0.00000e+00  3.51161e+00 
 6.19261e-03  4.18701e-03  0.00000e+00  3.47944e+00  7.31029e-04  3.59963e+02  3.60056e+02  4.91721e+00  4.99867e+00  2.95118e-01  7.71261e+00  4.76598e+01  1.39290e+05 -1.74982e+05  3.45692e+02  0.00000e+00 -3.53461e+04  5.63038e+02 -3.47831e+04  2.95129e-01  1.00000e+00 -7.67597e+00  0.00000e+00  3.85259e+00 
 6.35626e-03  4.42546e-03  0.00000e+00  3.47944e+00  7.31432e-04  3.59975e+02  3.60056e+02  4.88513e+00  4.96538e+00  3.02458e-01  7.08291e+00  4.76337e+01  1.42981e+05 -1.76630e+05  3.43664e+02  0.00000e+00 -3.33059e+04  5.03955e+02 -3.28020e+04  3.02470e-01  1.00000e+00 -7.04519e+00  0.00000e+00  4.22944e+00 
 6.52453e-03  4.66392e-03 -8.96437e-21  3.47944e+00  7.28963e-04  3.59988e+02  3.60056e+02  4.85058e+00  4.92962e+00  3.09676e-01  6.40667e+00  4.77952e+01  1.47643e+05 -1.79725e+05  3.42775e+02  0.00000e+00 -3.17388e+04  4.46381e+02 -3.12924e+04  3.09689e-01  1.00000e+00 -6.36764e+00  0.00000e+00  4.64668e+00 
 6.69707e-03  4.90238e-03  1.72236e-20  3.47944e+00  7.23998e-04  3.60001e+02  3.60056e+02  4.81339e+00  4.89127e+00  3.16830e-01  5.66793e+00  4.81231e+01  1.53244e+05 -1.84238e+05  3.42909e+02  0.00000e+00 -3.06508e+04  3.88223e+02 -3.02626e+04  3.16846e-01  1.00000e+00 -5.62737e+00  0.00000e+00  5.10772e+00 
 6.87356e-03  5.14086e-03  8.28595e-21  3.47944e+00  7.16797e-04  3.60014e+02  3.60056e+02  4.77350e+00  4.85021e+00  3.23834e-01  4.84722e+00  4.86068e+01  1.59865e+05 -1.90138e+05  3.43908e+02  0.00000e+00 -2.99292e+04  3.27574e+02 -2.96016e+04  3.23850e-01  1.00000e+00 -4.80491e+00  0.00000e+00  5.61952e+00 
 7.05370e-03  5.37934e-03 -1.59677e-20  3.47944e+00  7.07668e-04  3.60028e+02  3.60056e+02  4.73070e+00  4.80629e+00  3.30774e-01  3.92735e+00  4.92340e+01  1.67508e+05 -1.97495e+05  3.45687e+02  0.00000e+00 -2.96415e+04  2.62515e+02 -2.93790e+04  3.30792e-01  1.00000e+00 -3.88305e+00  0.00000e+00  6.18695e+00 
 7.23722e-03  5.61783e-03  0.00000e+00  3.47944e+00  6.96751e-04  3.60042e+02  3.60056e+02  4.68494e+00  4.75942e+00  3.37529e-01  2.88689e+00  5.00056e+01  1.76351e+05 -2.06366e+05  3.48153e+02  0.00000e+00 -2.96660e+04  1.91131e+02 -2.94749e+04  3.37549e-01  1.00000e+00 -2.84038e+00  0.00000e+00  6.82110e+00 
 7.42387e-03  5.85632e-03  0.00000e+00  3.47944e+00  6.84287e-04  3.60056e+02  3.60057e+02  4.63576e+00  4.70918e+00  3.44233e-01  1.70336e+00  5.09166e+01  1.86436e+05 -2.16943e+05  3.51281e+02  0.00000e+00 -3.01554e+04  1.11143e+02 -3.00442e+04  3.44257e-01  1.00000e+00 -1.65436e+00  0.00000e+00  7.52901e+00 
 7.61342e-03  6.09482e-03  0.00000e+00  3.47944e+00  6.70301e-04  3.60071e+02  3.60057e+02  4.58332e+00  4.65568e+00  3.50712e-01  3.48965e-01  5.19793e+01  1.98095e+05 -2.29385e+05  3.55021e+02  0.00000e+00 -3.09353e+04  2.00066e+01 -3.09153e+04  3.50739e-01  1.00000e+00 -2.97203e-01  0.00000e+00  8.32969e+00 
 7.80566e-03  6.33332e-03  0.00000e+00  3.47944e+00  6.55016e-04  3.60086e+02  3.60057e+02  4.52656e+00  4.59791e+00  3.57176e-01 -2.87142e+00  5.31926e+01  2.11400e+05 -2.44024e+05  3.59348e+02  0.00000e+00 -3.22654e+04 -2.02670e+02 -3.24680e+04  3.57207e-01  1.00000e+00  2.99630e+00  0.00000e+00  9.23407e+00 
 8.00039e-03  6.57182e-03  0.00000e+00  3.47944e+00  6.38313e-04  3.60102e+02  3.60057e+02  4.46626e+00  4.53660e+00  3.63421e-01 -7.04444e+00  5.45847e+01  2.26943e+05 -2.61236e+05  3.64328e+02  0.00000e+00 -3.39292e+04 -4.89600e+02 -3.44188e+04  3.63452e-01  1.00000e+00  7.17701e+00  0.00000e+00  1.02761e+01 
 8.19744e-03  6.81033e-03  1.31016e-20  3.47944e+00  6.20309e-04  3.60118e+02  3.60058e+02  4.39985e+00  4.46926e+00  3.69652e-01 -1.19741e+01  5.61694e+01  2.44977e+05 -2.81684e+05  3.69898e+02  0.00000e+00 -3.63369e+04 -8.36149e+02 -3.71731e+04  3.69679e-01  1.00000e+00  1.21153e+01  0.00000e+00  1.14763e+01 
 8.39664e-03  7.04884e-03  0.00000e+00  3.47944e+00  6.00704e-04  3.60136e+02  3.60058e+02  4.33007e+00  4.39857e+00  3.75670e-01 -1.78993e+01  5.80029e+01  2.66543e+05 -3.06287e+05  3.76526e+02  0.00000e+00 -3.93671e+04 -1.26586e+03 -4.06330e+04  3.75690e-01  1.00000e+00  1.80504e+01  0.00000e+00  1.28932e+01 
 8.59784e-03  7.28736e-03  0.00000e+00  3.47944e+00  5.79583e-04  3.60154e+02  3.60058e+02  4.25012e+00  4.31776e+00  3.81786e-01 -2.51822e+01  6.01171e+01  2.92234e+05 -3.36380e+05  3.83688e+02  0.00000e+00 -4.37622e+04 -1.81269e+03 -4.55748e+04  3.81802e-01  1.00000e+00  2.53446e+01  0.00000e+00  1.45695e+01 
 8.80092e-03  7.52587e-03  0.00000e+00  3.47944e+00  5.56421e-04  3.60175e+02  3.60059e+02  4.16878e+00  4.23562e+00  3.87710e-01 -3.43868e+01  6.26200e+01  3.24334e+05 -3.73814e+05  3.92049e+02  0.00000e+00 -4.90881e+04 -2.53557e+03 -5.16237e+04  3.87723e-01  1.00000e+00  3.45625e+01  0.00000e+00  1.66506e+01 
 9.00573e-03  7.76439e-03 -1.17014e-20  3.47944e+00  5.31327e-04  3.60199e+02  3.60059e+02  4.06768e+00  4.13380e+00  3.93854e-01 -4.63997e+01  6.55780e+01  3.64006e+05 -4.21802e+05  4.01354e+02  0.00000e+00 -5.73949e+04 -3.52363e+03 -6.09185e+04  3.93869e-01  1.00000e+00  4.65912e+01  0.00000e+00  1.91965e+01 
 9.21216e-03  8.00291e-03  0.00000e+00  3.47944e+00  5.03364e-04  3.60227e+02  3.60059e+02  3.97125e+00  4.03659e+00  3.99912e-01 -6.28091e+01  6.92216e+01  4.16836e+05 -4.84955e+05  4.13266e+02  0.00000e+00 -6.77064e+04 -4.95469e+03 -7.26611e+04  3.99930e-01  1.00000e+00  6.30202e+01  0.00000e+00  2.25935e+01 
 9.42012e-03  8.24144e-03  0.00000e+00  3.47944e+00  4.72613e-04  3.60261e+02  3.60060e+02  3.83377e+00  3.89839e+00  4.06307e-01 -8.63446e+01  7.37263e+01  4.86728e+05 -5.71866e+05  4.25910e+02  0.00000e+00 -8.47114e+04 -7.13581e+03 -9.18472e+04  4.06329e-01  1.00000e+00  8.65801e+01  0.00000e+00  2.70312e+01 
 9.62949e-03  8.47996e-03  0.00000e+00  3.47944e+00  4.37424e-04  3.60307e+02  3.60060e+02  3.71044e+00  3.77262e+00  4.12840e-01 -1.22858e+02  7.96580e+01  5.89823e+05 -6.97662e+05  4.44865e+02  0.00000e+00 -1.07395e+05 -1.07908e+04 -1.18185e+05  4.12865e-01  1.00000e+00  1.23126e+02  0.00000e+00  3.36671e+01 
 9.84019e-03  8.71849e-03  0.00000e+00  3.47944e+00  3.97764e-04  3.60372e+02  3.60061e+02  3.50314e+00  3.56065e+00  4.19734e-01 -1.84287e+02  8.76017e+01  7.44344e+05 -8.93032e+05  4.63652e+02  0.00000e+00 -1.48225e+05 -1.74993e+04 -1.65724e+05  4.19763e-01  1.00000e+00  1.84598e+02  0.00000e+00  4.34924e+01 
 1.00521e-02  8.95702e-03  0.00000e+00  3.47944e+00  3.50464e-04  3.60477e+02  3.60062e+02  3.32165e+00  3.37207e+00  4.26940e-01 -3.06383e+02  9.94260e+01  1.02449e+06 -1.22531e+06  4.93991e+02  0.00000e+00 -2.00322e+05 -3.24488e+04 -2.32771e+05  4.26969e-01  1.00000e+00  3.06761e+02  0.00000e+00  6.22086e+01 
 1.02653e-02  9.19555e-03  0.00000e+00  3.47944e+00  2.96198e-04  3.60682e+02  3.60063e+02  2.94683e+00  2.98891e+00  4.35327e-01 -6.05727e+02  1.17644e+02  1.58570e+06 -1.83313e+06  5.15533e+02  0.00000e+00 -2.46917e+05 -7.44085e+04 -3.21325e+05  4.35358e-01  1.00000e+00  6.06212e+02  0.00000e+00  1.03046e+02 
 1.04795e-02  9.43408e-03  0.00000e+00  3.47944e+00  2.36716e-04  3.61260e+02  3.60064e+02  2.44965e+00  2.47733e+00  4.46011e-01 -5.12308e+03  1.47208e+02  3.11301e+06 -2.69706e+06  5.50776e+02  1.11437e+06  1.53087e+06 -1.52096e+06  9.90530e+03  4.46036e-01  1.00000e+00  5.12375e+03  3.42235e+03  2.60961e+02 
