# Code_Saturne plot output (1D profile)
#
# Iteration output: 2468
# Time output:      2.30030e+01
#
#COLUMN_TITLES: Distance | X | Y | Z | diameter_Field2 | temp_Field1 | temp_Field2 | Velocity_Field1[Z] | Velocity_Field2[Z] | vol_f_Field2 | mass_trans_Field1 | Xd_Field2 | BK | COAL | COMP | NUCL | W1 | MT | SMBR | ALPBB | CONDNUM | GAMA | GAMANUC | epsilon_Field1
 4.56474e-03  1.39645e-04  0.00000e+00  3.47944e+00  1.47285e-05  3.58619e+02  3.60047e+02  4.13374e+00  4.13404e+00  5.04482e-04  3.74175e+01  2.36664e+03 1.14287e-168 -1.80409e+05  8.05372e+03  0.00000e+00 -1.72355e+05  7.85602e+07  7.83878e+07  4.93348e-04  1.00000e+00 -3.74115e+01  0.00000e+00  3.24772e-01 
 4.57812e-03  3.76525e-04  4.25872e-21  3.47944e+00  2.16102e-05  3.58623e+02  3.60047e+02  4.13337e+00  4.13407e+00  1.05081e-03  4.98024e+01  1.61299e+03  1.72591e-83 -2.01322e+05  7.01522e+03  0.00000e+00 -1.94307e+05  3.33716e+07  3.31773e+07  1.05099e-03  1.00000e+00 -4.97945e+01  0.00000e+00  3.27678e-01 
 4.60371e-03  6.13858e-04  0.00000e+00  3.47944e+00  2.94431e-05  3.58632e+02  3.60047e+02  4.13220e+00  4.13361e+00  1.94490e-03  5.94654e+01  1.18387e+03  1.49684e-45 -2.22204e+05  5.31757e+03  0.00000e+00 -2.16886e+05  1.58022e+07  1.55853e+07  1.94488e-03  1.00000e+00 -5.94558e+01  0.00000e+00  3.33362e-01 
 4.64138e-03  8.51483e-04  0.00000e+00  3.47944e+00  3.80592e-05  3.58645e+02  3.60047e+02  4.13046e+00  4.13291e+00  3.01762e-03  6.22447e+01  9.15861e+02  4.03817e-26 -2.25110e+05  4.18742e+03  0.00000e+00 -2.20922e+05  8.24608e+06  8.02515e+06  3.01795e-03  1.00000e+00 -6.22346e+01  0.00000e+00  3.41895e-01 
 4.69084e-03  1.08931e-03  0.00000e+00  3.47944e+00  4.70683e-05  3.58662e+02  3.60047e+02  4.12808e+00  4.13181e+00  4.12699e-03  6.09424e+01  7.40561e+02  2.22774e-15 -2.16964e+05  3.41475e+03  0.00000e+00 -2.13549e+05  4.77303e+06  4.55948e+06  4.12762e-03  1.00000e+00 -6.09324e+01  0.00000e+00  3.53390e-01 
 4.75174e-03  1.32727e-03  1.05001e-20  3.47944e+00  5.61226e-05  3.58684e+02  3.60047e+02  4.12504e+00  4.13030e+00  5.25881e-03  5.82359e+01  6.21086e+02  4.95651e-09 -2.07633e+05  2.86825e+03  0.00000e+00 -2.04765e+05  3.00185e+06  2.79709e+06  5.25966e-03  1.00000e+00 -5.82261e+01  0.00000e+00  3.68016e-01 
 4.82366e-03  1.56534e-03  0.00000e+00  3.47944e+00  6.49334e-05  3.58709e+02  3.60047e+02  4.12131e+00  4.12834e+00  6.53970e-03  5.61599e+01  5.36811e+02  4.62856e-05 -2.04467e+05  2.47825e+03  0.00000e+00 -2.01989e+05  2.01200e+06  1.81001e+06  6.54067e-03  1.00000e+00 -5.61503e+01  0.00000e+00  3.86031e-01 
 4.90611e-03  1.80349e-03  8.81027e-21  3.47944e+00  7.33410e-05  3.58739e+02  3.60047e+02  4.11686e+00  4.12556e+00  8.10263e-03  5.64952e+01  4.75272e+02  1.93334e-02 -2.09387e+05  2.19608e+03  0.00000e+00 -2.07191e+05  1.44634e+06  1.23915e+06  8.10373e-03  1.00000e+00 -5.64854e+01  0.00000e+00  4.07789e-01 
 4.99859e-03  2.04170e-03  0.00000e+00  3.47944e+00  8.14954e-05  3.58774e+02  3.60047e+02  4.11167e+00  4.12202e+00  9.98801e-03  5.79298e+01  4.27717e+02  1.36127e+00 -2.19760e+05  1.97705e+03  0.00000e+00 -2.17781e+05  1.08275e+06  8.64965e+05  9.98927e-03  1.00000e+00 -5.79194e+01  0.00000e+00  4.33681e-01 
 5.10055e-03  2.27996e-03  7.58893e-21  3.47944e+00  8.95277e-05  3.58812e+02  3.60047e+02  4.10571e+00  4.11769e+00  1.22457e-02  6.00834e+01  3.89342e+02  3.14162e+01 -2.34331e+05  1.79960e+03  0.00000e+00 -2.32500e+05  8.33781e+05  6.01281e+05  1.22472e-02  1.00000e+00 -6.00724e+01  0.00000e+00  4.64160e-01 
 5.21143e-03  2.51826e-03  7.09702e-21  3.47944e+00  9.74693e-05  3.58855e+02  3.60047e+02  4.09893e+00  4.11251e+00  1.49347e-02  6.27949e+01  3.57620e+02  3.37466e+02 -2.52835e+05  1.65240e+03  0.00000e+00 -2.50845e+05  6.56300e+05  4.05455e+05  1.49363e-02  1.00000e+00 -6.27830e+01  0.00000e+00  4.99782e-01 
 5.33068e-03  2.75659e-03  1.33300e-20  3.47944e+00  1.05255e-04  3.58901e+02  3.60047e+02  4.09130e+00  4.10640e+00  1.81216e-02  6.60210e+01  3.31167e+02  2.07787e+03 -2.75682e+05  1.52919e+03  0.00000e+00 -2.72075e+05  5.26609e+05  2.54534e+05  1.81234e-02  1.00000e+00 -6.60080e+01  0.00000e+00  5.41357e-01 
 5.45775e-03  2.99495e-03  1.25651e-20  3.47944e+00  1.12736e-04  3.58951e+02  3.60047e+02  4.08274e+00  4.09927e+00  2.18807e-02  6.97994e+01  3.09191e+02  8.40284e+03 -3.03848e+05  1.42634e+03  0.00000e+00 -2.94019e+05  4.30500e+05  1.36481e+05  2.18827e-02  1.00000e+00 -6.97850e+01  0.00000e+00  5.89831e-01 
 5.59212e-03  3.23333e-03  0.00000e+00  3.47944e+00  1.19707e-04  3.59005e+02  3.60047e+02  4.07320e+00  4.09100e+00  2.62940e-02  7.42177e+01  2.91186e+02  2.46239e+04 -3.38849e+05  1.34156e+03  0.00000e+00 -3.12883e+05  3.58738e+05  4.58544e+04  2.62963e-02  1.00000e+00 -7.42017e+01  0.00000e+00  6.46320e-01 
 5.73326e-03  3.47172e-03  0.00000e+00  3.47944e+00  1.25959e-04  3.59061e+02  3.60047e+02  4.06258e+00  4.08147e+00  3.14509e-02  7.93725e+01  2.76733e+02  5.64747e+04 -3.82653e+05  1.27288e+03  0.00000e+00 -3.24906e+05  3.04826e+05 -2.00796e+04  3.14534e-02  1.00000e+00 -7.93544e+01  0.00000e+00  7.12138e-01 
 5.88069e-03  3.71014e-03 -5.35987e-21  3.47944e+00  1.31354e-04  3.59119e+02  3.60047e+02  4.05080e+00  4.07056e+00  3.74460e-02  8.53140e+01  2.65367e+02  1.07925e+05 -4.37491e+05  1.21814e+03  0.00000e+00 -3.28348e+05  2.63885e+05 -6.44632e+04  3.74487e-02  1.00000e+00 -8.52934e+01  0.00000e+00  7.88834e-01 
 6.03395e-03  3.94857e-03  5.10973e-21  3.47944e+00  1.35869e-04  3.59180e+02  3.60047e+02  4.03773e+00  4.05817e+00  4.43750e-02  9.20019e+01  2.56550e+02  1.80675e+05 -5.05621e+05  1.17485e+03  0.00000e+00 -3.23772e+05  2.32154e+05 -9.16174e+04  4.43781e-02  1.00000e+00 -9.19783e+01  0.00000e+00  8.78244e-01 
 6.19261e-03  4.18701e-03  0.00000e+00  3.47944e+00  1.39591e-04  3.59241e+02  3.60047e+02  4.02326e+00  4.04419e+00  5.23365e-02  9.92979e+01  2.49710e+02  2.75200e+05 -5.89238e+05  1.14031e+03  0.00000e+00 -3.12897e+05  2.06782e+05 -1.06115e+05  5.23399e-02  1.00000e+00 -9.92707e+01  0.00000e+00  9.82544e-01 
 6.35626e-03  4.42546e-03  0.00000e+00  3.47944e+00  1.42677e-04  3.59303e+02  3.60047e+02  4.00723e+00  4.02851e+00  6.14210e-02  1.06960e+02  2.44308e+02  3.91830e+05 -6.90299e+05  1.11199e+03  0.00000e+00 -2.97357e+05  1.85684e+05 -1.11673e+05  6.14247e-02  1.00000e+00 -1.06928e+02  0.00000e+00  1.10433e+00 
 6.52453e-03  4.66392e-03 -8.96437e-21  3.47944e+00  1.45318e-04  3.59366e+02  3.60047e+02  3.98944e+00  4.01098e+00  7.17064e-02  1.13261e+02  2.39869e+02  5.31086e+05 -8.10404e+05  1.08768e+03  0.00000e+00 -2.78230e+05  1.65358e+05 -1.12873e+05  7.17105e-02  1.00000e+00 -1.13225e+02  0.00000e+00  1.24668e+00 
 6.69707e-03  4.90238e-03  1.72236e-20  3.47944e+00  1.47669e-04  3.59427e+02  3.60047e+02  3.96967e+00  3.99142e+00  8.32437e-02  1.18658e+02  2.36049e+02  6.93087e+05 -9.50884e+05  1.06571e+03  0.00000e+00 -2.56732e+05  1.46847e+05 -1.09885e+05  8.32480e-02  1.00000e+00 -1.18617e+02  0.00000e+00  1.41321e+00 
 6.87356e-03  5.14086e-03  8.28595e-21  3.47944e+00  1.49879e-04  3.59487e+02  3.60047e+02  3.94766e+00  3.96945e+00  9.60459e-02  1.22863e+02  2.32569e+02  8.77395e+05 -1.11236e+06  1.04482e+03  0.00000e+00 -2.33916e+05  1.29838e+05 -1.04078e+05  9.60506e-02  1.00000e+00 -1.22817e+02  0.00000e+00  1.60824e+00 
 7.05370e-03  5.37934e-03 -1.59677e-20  3.47944e+00  1.52089e-04  3.59545e+02  3.60047e+02  3.92309e+00  3.94486e+00  1.10094e-01  1.25466e+02  2.29190e+02  1.08267e+06 -1.29441e+06  1.02377e+03  0.00000e+00 -2.10712e+05  1.13984e+05 -9.67280e+04  1.10100e-01  1.00000e+00 -1.25413e+02  0.00000e+00  1.83676e+00 
 7.23722e-03  5.61783e-03  0.00000e+00  3.47944e+00  1.54425e-04  3.59601e+02  3.60047e+02  3.89558e+00  3.91735e+00  1.25297e-01  1.26090e+02  2.25723e+02  1.30634e+06 -1.49508e+06  1.00174e+03  0.00000e+00 -1.87731e+05  9.91257e+04 -8.86057e+04  1.25303e-01  1.00000e+00 -1.26031e+02  0.00000e+00  2.10465e+00 
 7.42387e-03  5.85632e-03  0.00000e+00  3.47944e+00  1.56993e-04  3.59654e+02  3.60047e+02  3.86471e+00  3.88647e+00  1.41546e-01  1.24496e+02  2.22032e+02  1.54414e+06 -1.71135e+06  9.78047e+02  0.00000e+00 -1.66227e+05  8.52165e+04 -8.10102e+04  1.41552e-01  1.00000e+00 -1.24431e+02  0.00000e+00  2.41845e+00 
 7.61342e-03  6.09482e-03  0.00000e+00  3.47944e+00  1.59854e-04  3.59704e+02  3.60048e+02  3.83002e+00  3.85176e+00  1.58601e-01  1.20551e+02  2.18058e+02  1.79090e+06 -1.93830e+06  9.52348e+02  0.00000e+00 -1.46447e+05  7.23200e+04 -7.41270e+04  1.58607e-01  1.00000e+00 -1.20479e+02  0.00000e+00  2.78601e+00 
 7.80566e-03  6.33332e-03  0.00000e+00  3.47944e+00  1.63046e-04  3.59751e+02  3.60048e+02  3.79105e+00  3.81277e+00  1.76289e-01  1.14364e+02  2.13790e+02  2.04026e+06 -2.17148e+06  9.24627e+02  0.00000e+00 -1.30296e+05  6.05116e+04 -6.97844e+04  1.76296e-01  1.00000e+00 -1.14287e+02  0.00000e+00  3.21564e+00 
 8.00039e-03  6.57182e-03  0.00000e+00  3.47944e+00  1.66516e-04  3.59794e+02  3.60048e+02  3.74734e+00  3.76902e+00  1.94229e-01  1.06142e+02  2.09335e+02  2.28769e+06 -2.40558e+06  8.95259e+02  0.00000e+00 -1.16997e+05  4.99072e+04 -6.70898e+04  1.94236e-01  1.00000e+00 -1.06060e+02  0.00000e+00  3.71845e+00 
 8.19744e-03  6.81033e-03  1.31016e-20  3.47944e+00  1.70189e-04  3.59834e+02  3.60048e+02  3.69846e+00  3.72008e+00  2.12270e-01  9.63074e+01  2.04819e+02  2.52890e+06 -2.63891e+06  8.64840e+02  0.00000e+00 -1.09141e+05  4.05351e+04 -6.86055e+04  2.12278e-01  1.00000e+00 -9.62203e+01  0.00000e+00  4.30622e+00 
 8.39664e-03  7.04884e-03  0.00000e+00  3.47944e+00  1.73844e-04  3.59871e+02  3.60048e+02  3.64400e+00  3.66554e+00  2.29963e-01  8.52642e+01  2.00513e+02  2.76618e+06 -2.87144e+06  8.34379e+02  0.00000e+00 -1.04420e+05  3.24244e+04 -7.19959e+04  2.29970e-01  1.00000e+00 -8.51728e+01  0.00000e+00  4.99861e+00 
 8.59784e-03  7.28736e-03  0.00000e+00  3.47944e+00  1.77282e-04  3.59905e+02  3.60048e+02  3.58346e+00  3.60485e+00  2.47320e-01  7.34469e+01  1.96625e+02  3.00204e+06 -3.10961e+06  8.04778e+02  0.00000e+00 -1.06769e+05  2.54611e+04 -8.13080e+04  2.47329e-01  1.00000e+00 -7.33515e+01  0.00000e+00  5.81782e+00 
 8.80092e-03  7.52587e-03  0.00000e+00  3.47944e+00  1.80096e-04  3.59937e+02  3.60048e+02  3.51630e+00  3.53747e+00  2.63924e-01  6.11197e+01  1.93554e+02  3.25176e+06 -3.36499e+06  7.77252e+02  0.00000e+00 -1.12448e+05  1.95384e+04 -9.29091e+04  2.63932e-01  1.00000e+00 -6.10205e+01  0.00000e+00  6.80923e+00 
 9.00573e-03  7.76439e-03 -1.17014e-20  3.47944e+00  1.82004e-04  3.59967e+02  3.60049e+02  3.44107e+00  3.46188e+00  2.80044e-01  4.83343e+01  1.91525e+02  3.52759e+06 -3.65645e+06  7.52554e+02  0.00000e+00 -1.28111e+05  1.44018e+04 -1.13709e+05  2.80054e-01  1.00000e+00 -4.82310e+01  0.00000e+00  8.02628e+00 
 9.21216e-03  8.00291e-03  0.00000e+00  3.47944e+00  1.82419e-04  3.59996e+02  3.60049e+02  3.35715e+00  3.37743e+00  2.95369e-01  3.48253e+01  1.91090e+02  3.86681e+06 -4.01732e+06  7.31828e+02  0.00000e+00 -1.49778e+05  9.80649e+03 -1.39971e+05  2.95378e-01  1.00000e+00 -3.47173e+01  0.00000e+00  9.59118e+00 
 9.42012e-03  8.24144e-03  0.00000e+00  3.47944e+00  1.81003e-04  3.60025e+02  3.60049e+02  3.25930e+00  3.27886e+00  3.10353e-01  1.97226e+01  1.92587e+02  4.30208e+06 -4.49172e+06  7.15570e+02  0.00000e+00 -1.88931e+05  5.31273e+03 -1.83618e+05  3.10365e-01  1.00000e+00 -1.96088e+01  0.00000e+00  1.16579e+01 
 9.62949e-03  8.47996e-03  0.00000e+00  3.47944e+00  1.76940e-04  3.60055e+02  3.60049e+02  3.14850e+00  3.16708e+00  3.24842e-01  1.16920e+00  1.97010e+02  4.93254e+06 -5.17599e+06  7.05190e+02  0.00000e+00 -2.42747e+05  2.77433e+02 -2.42470e+05  3.24851e-01  1.00000e+00 -1.04771e+00  0.00000e+00  1.46339e+01 
 9.84019e-03  8.71849e-03  0.00000e+00  3.47944e+00  1.69792e-04  3.60091e+02  3.60050e+02  3.00667e+00  3.02413e+00  3.39221e-01 -5.50791e+01  2.05305e+02  5.88545e+06 -6.21407e+06  7.00734e+02  0.00000e+00 -3.27920e+05 -1.46144e+04 -3.42534e+05  3.39235e-01  1.00000e+00  5.53052e+01  0.00000e+00  1.91631e+01 
 1.00521e-02  8.95702e-03  0.00000e+00  3.47944e+00  1.58116e-04  3.60144e+02  3.60050e+02  2.83692e+00  2.85311e+00  3.53293e-01 -1.64531e+02  2.20468e+02  7.59661e+06 -8.02141e+06  7.05069e+02  0.00000e+00 -4.24100e+05 -4.48965e+04 -4.68997e+05  3.53303e-01  1.00000e+00  1.64777e+02  0.00000e+00  2.74019e+01 
 1.02653e-02  9.19555e-03  0.00000e+00  3.47944e+00  1.41964e-04  3.60257e+02  3.60051e+02  2.57557e+00  2.58956e+00  3.68304e-01 -4.63200e+02  2.45554e+02  1.10205e+07 -1.14404e+07  7.07130e+02  0.00000e+00 -4.19167e+05 -1.34917e+05 -5.54084e+05  3.68320e-01  1.00000e+00  4.63471e+02  0.00000e+00  4.56032e+01 
 1.04795e-02  9.43408e-03  0.00000e+00  3.47944e+00  1.24457e-04  3.60657e+02  3.60052e+02  2.15269e+00  2.16207e+00  3.84983e-01 -4.89429e+03  2.80100e+02  1.99344e+07 -1.79920e+07  7.02232e+02  1.02983e+06  2.97299e+06 -3.06349e+06 -9.04952e+04  3.84997e-01  1.00000e+00  4.89459e+03  3.11051e+03  1.15196e+02 
