# Code_Saturne plot output (1D profile)
#
# Iteration output: 19295
# Time output:      2.30000e+01
#
#COLUMN_TITLES: Distance | X | Y | Z | diameter_Field2 | temp_Field1 | temp_Field2 | Velocity_Field1[Z] | Velocity_Field2[Z] | vol_f_Field2 | mass_trans_Field1 | Xd_Field2 | BK | COAL | COMP | NUCL | W1 | MT | SMBR | ALPBB | CONDNUM | GAMA | GAMANUC | epsilon_Field1
 4.56474e-03  1.39645e-04  0.00000e+00  3.47944e+00  7.91626e-04  3.60378e+02  3.60166e+02  9.71167e+00  9.86840e+00  7.35461e-01 -4.15481e+01  4.37714e+01  2.18180e+05 -2.16336e+05  1.81520e+03  0.00000e+00  3.65834e+03 -1.10237e+03  2.55597e+03  7.35458e-01  1.00000e+00  4.15501e+01  0.00000e+00  1.47062e+01 
 4.57812e-03  3.76525e-04  4.25872e-21  3.47944e+00  7.90178e-04  3.60378e+02  3.60166e+02  9.70938e+00  9.86616e+00  7.35562e-01 -4.16138e+01  4.38516e+01  2.19069e+05 -2.17413e+05  1.81830e+03  0.00000e+00  3.47455e+03 -1.10598e+03  2.36857e+03  7.35560e-01  1.00000e+00  4.16158e+01  0.00000e+00  1.47686e+01 
 4.60371e-03  6.13858e-04  0.00000e+00  3.47944e+00  7.87381e-04  3.60377e+02  3.60166e+02  9.70486e+00  9.86106e+00  7.35658e-01 -4.16919e+01  4.40074e+01  2.20890e+05 -2.19477e+05  1.82428e+03  0.00000e+00  3.23685e+03 -1.11185e+03  2.12500e+03  7.35655e-01  1.00000e+00  4.16939e+01  0.00000e+00  1.48907e+01 
 4.64138e-03  8.51483e-04  0.00000e+00  3.47944e+00  7.83318e-04  3.60377e+02  3.60166e+02  9.69805e+00  9.85320e+00  7.35833e-01 -4.17908e+01  4.42358e+01  2.23560e+05 -2.22499e+05  1.83304e+03  0.00000e+00  2.89371e+03 -1.12000e+03  1.77370e+03  7.35831e-01  1.00000e+00  4.17928e+01  0.00000e+00  1.50739e+01 
 4.69084e-03  1.08931e-03  0.00000e+00  3.47944e+00  7.78002e-04  3.60376e+02  3.60166e+02  9.68891e+00  9.84265e+00  7.36066e-01 -4.19174e+01  4.45381e+01  2.27133e+05 -2.26520e+05  1.84464e+03  0.00000e+00  2.45774e+03 -1.13072e+03  1.32702e+03  7.36064e-01  1.00000e+00  4.19195e+01  0.00000e+00  1.53206e+01 
 4.75174e-03  1.32727e-03  1.05001e-20  3.47944e+00  7.71499e-04  3.60375e+02  3.60166e+02  9.67741e+00  9.82943e+00  7.36375e-01 -4.20703e+01  4.49136e+01  2.31614e+05 -2.31548e+05  1.85909e+03  0.00000e+00  1.92541e+03 -1.14393e+03  7.81485e+02  7.36372e-01  1.00000e+00  4.20724e+01  0.00000e+00  1.56334e+01 
 4.82366e-03  1.56534e-03  0.00000e+00  3.47944e+00  7.63862e-04  3.60374e+02  3.60166e+02  9.66354e+00  9.81352e+00  7.36755e-01 -4.22487e+01  4.53628e+01  2.37043e+05 -2.37620e+05  1.87647e+03  0.00000e+00  1.29979e+03 -1.15967e+03  1.40118e+02  7.36752e-01  1.00000e+00  4.22508e+01  0.00000e+00  1.60156e+01 
 4.90611e-03  1.80349e-03  8.81027e-21  3.47944e+00  7.55167e-04  3.60373e+02  3.60167e+02  9.64724e+00  9.79489e+00  7.37216e-01 -4.24506e+01  4.58853e+01  2.43450e+05 -2.44765e+05  1.89682e+03  0.00000e+00  5.81975e+02 -1.17790e+03 -5.95923e+02  7.37213e-01  1.00000e+00  4.24528e+01  0.00000e+00  1.64716e+01 
 4.99859e-03  2.04170e-03  0.00000e+00  3.47944e+00  7.45485e-04  3.60371e+02  3.60167e+02  9.62847e+00  9.77353e+00  7.37760e-01 -4.26743e+01  4.64814e+01  2.50883e+05 -2.53030e+05  1.92029e+03  0.00000e+00 -2.26465e+02 -1.19860e+03 -1.42507e+03  7.37757e-01  1.00000e+00  4.26765e+01  0.00000e+00  1.70062e+01 
 5.10055e-03  2.27996e-03  7.58893e-21  3.47944e+00  7.34896e-04  3.60369e+02  3.60167e+02  9.60716e+00  9.74938e+00  7.38391e-01 -4.29171e+01  4.71515e+01  2.59392e+05 -2.62462e+05  1.94706e+03  0.00000e+00 -1.12358e+03 -1.22176e+03 -2.34534e+03  7.38388e-01  1.00000e+00  4.29194e+01  0.00000e+00  1.76254e+01 
 5.21143e-03  2.51826e-03  7.09702e-21  3.47944e+00  7.23466e-04  3.60368e+02  3.60168e+02  9.58325e+00  9.72240e+00  7.39104e-01 -4.31783e+01  4.78968e+01  2.69058e+05 -2.73142e+05  1.97743e+03  0.00000e+00 -2.10660e+03 -1.24742e+03 -3.35402e+03  7.39100e-01  1.00000e+00  4.31805e+01  0.00000e+00  1.83360e+01 
 5.33068e-03  2.75659e-03  1.33300e-20  3.47944e+00  7.11265e-04  3.60366e+02  3.60168e+02  9.55664e+00  9.69252e+00  7.39891e-01 -4.34563e+01  4.87188e+01  2.79969e+05 -2.85154e+05  2.01180e+03  0.00000e+00 -3.17310e+03 -1.27564e+03 -4.44873e+03  7.39887e-01  1.00000e+00  4.34586e+01  0.00000e+00  1.91461e+01 
 5.45775e-03  2.99495e-03  1.25651e-20  3.47944e+00  6.98382e-04  3.60363e+02  3.60169e+02  9.52722e+00  9.65965e+00  7.40760e-01 -4.37483e+01  4.96181e+01  2.92205e+05 -2.98575e+05  2.05065e+03  0.00000e+00 -4.31965e+03 -1.30638e+03 -5.62603e+03  7.40756e-01  1.00000e+00  4.37507e+01  0.00000e+00  2.00648e+01 
 5.59212e-03  3.23333e-03  0.00000e+00  3.47944e+00  6.84893e-04  3.60361e+02  3.60170e+02  9.49487e+00  9.62369e+00  7.41707e-01 -4.40526e+01  5.05961e+01  3.05869e+05 -3.13505e+05  2.09462e+03  0.00000e+00 -5.54134e+03 -1.33968e+03 -6.88102e+03  7.41702e-01  1.00000e+00  4.40550e+01  0.00000e+00  2.11026e+01 
 5.73326e-03  3.47172e-03  0.00000e+00  3.47944e+00  6.70878e-04  3.60358e+02  3.60171e+02  9.45944e+00  9.58451e+00  7.42736e-01 -4.43662e+01  5.16539e+01  3.21069e+05 -3.30046e+05  2.14453e+03  0.00000e+00 -6.83339e+03 -1.37552e+03 -8.20891e+03  7.42731e-01  1.00000e+00  4.43687e+01  0.00000e+00  2.22714e+01 
 5.88069e-03  3.71014e-03 -5.35987e-21  3.47944e+00  6.56410e-04  3.60356e+02  3.60172e+02  9.42078e+00  9.54198e+00  7.43845e-01 -4.46877e+01  5.27936e+01  3.37934e+05 -3.48327e+05  2.20142e+03  0.00000e+00 -8.19204e+03 -1.41395e+03 -9.60599e+03  7.43839e-01  1.00000e+00  4.46903e+01  0.00000e+00  2.35852e+01 
 6.03395e-03  3.94857e-03  5.10973e-21  3.47944e+00  6.41559e-04  3.60353e+02  3.60174e+02  9.37871e+00  9.49594e+00  7.45035e-01 -4.50147e+01  5.40171e+01  3.56609e+05 -3.68488e+05  2.26659e+03  0.00000e+00 -9.61285e+03 -1.45498e+03 -1.10678e+04  7.45029e-01  1.00000e+00  4.50174e+01  0.00000e+00  2.50596e+01 
 6.19261e-03  4.18701e-03  0.00000e+00  3.47944e+00  6.26387e-04  3.60350e+02  3.60176e+02  9.33304e+00  9.44621e+00  7.46305e-01 -4.53466e+01  5.53275e+01  3.77261e+05 -3.90697e+05  2.34162e+03  0.00000e+00 -1.10942e+04 -1.49871e+03 -1.25929e+04  7.46299e-01  1.00000e+00  4.53493e+01  0.00000e+00  2.67129e+01 
 6.35626e-03  4.42546e-03  0.00000e+00  3.47944e+00  6.10947e-04  3.60347e+02  3.60178e+02  9.28354e+00  9.39259e+00  7.47655e-01 -4.56822e+01  5.67282e+01  4.00089e+05 -4.15153e+05  2.42847e+03  0.00000e+00 -1.26350e+04 -1.54523e+03 -1.41802e+04  7.47648e-01  1.00000e+00  4.56850e+01  0.00000e+00  2.85664e+01 
 6.52453e-03  4.66392e-03 -8.96437e-21  3.47944e+00  5.95285e-04  3.60344e+02  3.60182e+02  9.22998e+00  9.33486e+00  7.49083e-01 -4.60226e+01  5.82239e+01  4.25321e+05 -4.42090e+05  2.52947e+03  0.00000e+00 -1.42394e+04 -1.59475e+03 -1.58342e+04  7.49076e-01  1.00000e+00  4.60255e+01  0.00000e+00  3.06449e+01 
 6.69707e-03  4.90238e-03  1.72236e-20  3.47944e+00  5.79438e-04  3.60340e+02  3.60186e+02  9.17209e+00  9.27274e+00  7.50587e-01 -4.63693e+01  5.98206e+01  4.53235e+05 -4.71799e+05  2.64744e+03  0.00000e+00 -1.59160e+04 -1.64752e+03 -1.75635e+04  7.50580e-01  1.00000e+00  4.63723e+01  0.00000e+00  3.29777e+01 
 6.87356e-03  5.14086e-03  8.28595e-21  3.47944e+00  5.63431e-04  3.60337e+02  3.60192e+02  9.10956e+00  9.20596e+00  7.52168e-01 -4.67268e+01  6.15255e+01  4.84160e+05 -5.04628e+05  2.78569e+03  0.00000e+00 -1.76816e+04 -1.70395e+03 -1.93856e+04  7.52161e-01  1.00000e+00  4.67299e+01  0.00000e+00  3.56002e+01 
 7.05370e-03  5.37934e-03 -1.59677e-20  3.47944e+00  5.47277e-04  3.60334e+02  3.60199e+02  9.04206e+00  9.13418e+00  7.53820e-01 -4.71016e+01  6.33488e+01  5.18514e+05 -5.41022e+05  2.94813e+03  0.00000e+00 -1.95607e+04 -1.76464e+03 -2.13253e+04  7.53814e-01  1.00000e+00  4.71048e+01  0.00000e+00  3.85548e+01 
 7.23722e-03  5.61783e-03  0.00000e+00  3.47944e+00  5.30980e-04  3.60330e+02  3.60208e+02  8.96919e+00  9.05701e+00  7.55545e-01 -4.75044e+01  6.53024e+01  5.56794e+05 -5.81523e+05  3.13930e+03  0.00000e+00 -2.15895e+04 -1.83043e+03 -2.34200e+04  7.55539e-01  1.00000e+00  4.75078e+01  0.00000e+00  4.18941e+01 
 7.42387e-03  5.85632e-03  0.00000e+00  3.47944e+00  5.14529e-04  3.60327e+02  3.60220e+02  8.89051e+00  8.97399e+00  7.57338e-01 -4.79510e+01  6.74025e+01  5.99654e+05 -6.26842e+05  3.36453e+03  0.00000e+00 -2.38237e+04 -1.90255e+03 -2.57263e+04  7.57333e-01  1.00000e+00  4.79545e+01  0.00000e+00  4.56832e+01 
 7.61342e-03  6.09482e-03  0.00000e+00  3.47944e+00  4.97901e-04  3.60323e+02  3.60235e+02  8.80546e+00  8.88458e+00  7.59201e-01 -4.84646e+01  6.96692e+01  6.47898e+05 -6.77871e+05  3.62995e+03  0.00000e+00 -2.63436e+04 -1.98271e+03 -2.83263e+04  7.59197e-01  1.00000e+00  4.84682e+01  0.00000e+00  5.00050e+01 
 7.80566e-03  6.33332e-03  0.00000e+00  3.47944e+00  4.81054e-04  3.60320e+02  3.60253e+02  8.71342e+00  8.78812e+00  7.61128e-01 -4.90792e+01  7.21293e+01  7.02616e+05 -7.35811e+05  3.94280e+03  0.00000e+00 -2.92523e+04 -2.07350e+03 -3.13258e+04  7.61125e-01  1.00000e+00  4.90830e+01  0.00000e+00  5.49660e+01 
 8.00039e-03  6.57182e-03  0.00000e+00  3.47944e+00  4.63939e-04  3.60317e+02  3.60276e+02  8.61359e+00  8.68384e+00  7.63122e-01 -4.98439e+01  7.48167e+01  7.65201e+05 -8.02224e+05  4.31176e+03  0.00000e+00 -3.27108e+04 -2.17856e+03 -3.48894e+04  7.63120e-01  1.00000e+00  4.98479e+01  0.00000e+00  6.07061e+01 
 8.19744e-03  6.81033e-03  1.31016e-20  3.47944e+00  4.46472e-04  3.60313e+02  3.60304e+02  8.50509e+00  8.57083e+00  7.65177e-01 -5.08340e+01  7.77779e+01  8.37617e+05 -8.79296e+05  4.74752e+03  0.00000e+00 -3.69312e+04 -2.30359e+03 -3.92348e+04  7.65174e-01  1.00000e+00  5.08383e+01  0.00000e+00  6.74138e+01 
 8.39664e-03  7.04884e-03  0.00000e+00  3.47944e+00  4.28563e-04  3.60310e+02  3.60340e+02  8.38743e+00  8.44862e+00  7.67309e-01 -5.21587e+01  8.10726e+01  9.22474e+05 -9.69829e+05  5.26140e+03  0.00000e+00 -4.20930e+04 -2.45690e+03 -4.45499e+04  7.67307e-01  1.00000e+00  5.21632e+01  0.00000e+00  7.53619e+01 
 8.59784e-03  7.28736e-03  0.00000e+00  3.47944e+00  4.10057e-04  3.60308e+02  3.60385e+02  8.25825e+00  8.31482e+00  7.69484e-01 -5.40085e+01  8.47894e+01  1.02387e+06 -1.07813e+06  5.87071e+03  0.00000e+00 -4.83855e+04 -2.65314e+03 -5.10387e+04  7.69486e-01  1.00000e+00  5.40132e+01  0.00000e+00  8.49416e+01 
 8.80092e-03  7.52587e-03  0.00000e+00  3.47944e+00  3.90821e-04  3.60306e+02  3.60442e+02  8.11426e+00  8.16607e+00  7.71823e-01 -5.66587e+01  8.90386e+01  1.14680e+06 -1.21017e+06  6.59983e+03  0.00000e+00 -5.67690e+04 -2.91397e+03 -5.96830e+04  7.71825e-01  1.00000e+00  5.66636e+01  0.00000e+00  9.67126e+01 
 9.00573e-03  7.76439e-03 -1.17014e-20  3.47944e+00  3.70526e-04  3.60304e+02  3.60512e+02  7.95303e+00  7.99993e+00  7.74100e-01 -6.06618e+01  9.40159e+01  1.30155e+06 -1.37687e+06  7.48225e+03  0.00000e+00 -6.78428e+04 -3.28462e+03 -7.11274e+04  7.74099e-01  1.00000e+00  6.06671e+01  0.00000e+00  1.11521e+02 
 9.21216e-03  8.00291e-03  0.00000e+00  3.47944e+00  3.49017e-04  3.60304e+02  3.60603e+02  7.77002e+00  7.81192e+00  7.76680e-01 -6.68635e+01  9.99449e+01  1.49934e+06 -1.59209e+06  8.57696e+03  0.00000e+00 -8.41735e+04 -3.83598e+03 -8.80095e+04  7.76681e-01  1.00000e+00  6.68692e+01  0.00000e+00  1.30757e+02 
 9.42012e-03  8.24144e-03  0.00000e+00  3.47944e+00  3.25619e-04  3.60306e+02  3.60719e+02  7.55636e+00  7.59298e+00  7.79051e-01 -7.72947e+01  1.07312e+02  1.76920e+06 -1.88890e+06  9.98503e+03  0.00000e+00 -1.09713e+05 -4.74702e+03 -1.14460e+05  7.79055e-01  1.00000e+00  7.73009e+01  0.00000e+00  1.56671e+02 
 9.62949e-03  8.47996e-03  0.00000e+00  3.47944e+00  3.00118e-04  3.60312e+02  3.60871e+02  7.30743e+00  7.33888e+00  7.82751e-01 -9.56793e+01  1.16692e+02  2.14093e+06 -2.30926e+06  1.18354e+04  0.00000e+00 -1.56494e+05 -6.35997e+03 -1.62854e+05  7.82757e-01  1.00000e+00  9.56861e+01  0.00000e+00  1.94090e+02 
 9.84019e-03  8.71849e-03  0.00000e+00  3.47944e+00  2.70794e-04  3.60327e+02  3.61078e+02  6.99895e+00  7.02564e+00  7.85120e-01 -1.33559e+02  1.29721e+02  2.73962e+06 -2.98749e+06  1.42649e+04  0.00000e+00 -2.33610e+05 -9.83724e+03 -2.43447e+05  7.85114e-01  1.00000e+00  1.33566e+02  0.00000e+00  2.51632e+02 
 1.00521e-02  8.95702e-03  0.00000e+00  3.47944e+00  2.35985e-04  3.60360e+02  3.61375e+02  6.62968e+00  6.65095e+00  7.90600e-01 -2.25310e+02  1.49495e+02  3.78449e+06 -4.18892e+06  1.76750e+04  0.00000e+00 -3.86756e+05 -1.89871e+04 -4.05743e+05  7.90610e-01  1.00000e+00  2.25318e+02  0.00000e+00  3.60234e+02 
 1.02653e-02  9.19555e-03  0.00000e+00  3.47944e+00  1.93905e-04  3.60456e+02  3.61856e+02  6.02490e+00  6.04455e+00  7.92647e-01 -5.35358e+02  1.83175e+02  6.13637e+06 -6.83074e+06  1.98123e+04  0.00000e+00 -6.74561e+05 -5.51290e+04 -7.29690e+05  7.92673e-01  1.00000e+00  5.35368e+02  0.00000e+00  5.92340e+02 
 1.04795e-02  9.43408e-03  0.00000e+00  3.47944e+00  1.45515e-04  3.60870e+02  3.62886e+02  5.08429e+00  5.09962e+00  8.05994e-01 -9.83605e+03  2.47527e+02  1.27942e+07 -1.16402e+07  6.71120e+04  1.14492e+06  2.36605e+06 -2.85618e+06 -4.90126e+05  8.05984e-01  1.00000e+00  9.83607e+03  7.37652e+03  1.53473e+03 
