# Code_Saturne plot output (1D profile)
#
# Iteration output: 4538
# Time output:      2.30004e+01
#
#COLUMN_TITLES: Distance | X | Y | Z | diameter_Field2 | temp_Field1 | temp_Field2 | Velocity_Field1[Z] | Velocity_Field2[Z] | vol_f_Field2 | mass_trans_Field1 | Xd_Field2 | BK | COAL | COMP | NUCL | W1 | MT | SMBR | ALPBB | CONDNUM | GAMA | GAMANUC | epsilon_Field1
 4.56474e-03  1.39645e-04  0.00000e+00  3.47944e+00  1.85645e-04  3.59690e+02  3.60053e+02  4.88792e+00  4.92725e+00  1.31145e-01  7.49217e+01  1.87699e+02  1.30073e+05 -8.54601e+05  1.26945e+03  0.00000e+00 -7.23258e+05  5.62753e+04 -6.66983e+05  1.31154e-01  1.00000e+00 -7.47630e+01  0.00000e+00  8.50591e-01 
 4.57812e-03  3.76525e-04  4.25872e-21  3.47944e+00  2.28186e-04  3.59691e+02  3.60053e+02  4.88648e+00  4.93641e+00  1.32177e-01  5.73271e+01  1.52706e+02  1.70391e+05 -6.03922e+05  1.03452e+03  0.00000e+00 -4.32497e+05  3.47615e+04 -3.97735e+05  1.32187e-01  1.00000e+00 -5.72052e+01  0.00000e+00  8.61158e-01 
 4.60371e-03  6.13858e-04  0.00000e+00  3.47944e+00  2.55987e-04  3.59692e+02  3.60053e+02  4.88415e+00  4.94088e+00  1.34001e-01  4.98247e+01  1.36122e+02  1.83421e+05 -5.04250e+05  9.23223e+02  0.00000e+00 -3.19906e+05  2.65656e+04 -2.93340e+05  1.34012e-01  1.00000e+00 -4.97183e+01  0.00000e+00  8.81595e-01 
 4.64138e-03  8.51483e-04  0.00000e+00  3.47944e+00  2.77386e-04  3.59694e+02  3.60053e+02  4.88089e+00  4.94268e+00  1.36577e-01  4.55281e+01  1.25621e+02  1.90173e+05 -4.50788e+05  8.52598e+02  0.00000e+00 -2.59762e+05  2.19800e+04 -2.37782e+05  1.36587e-01  1.00000e+00 -4.54303e+01  0.00000e+00  9.12236e-01 
 4.69084e-03  1.08931e-03  0.00000e+00  3.47944e+00  2.96641e-04  3.59697e+02  3.60053e+02  4.87655e+00  4.94270e+00  1.39985e-01  4.24902e+01  1.17466e+02  1.94917e+05 -4.15628e+05  7.97614e+02  0.00000e+00 -2.19913e+05  1.87148e+04 -2.01199e+05  1.39995e-01  1.00000e+00 -4.23981e+01  0.00000e+00  9.53436e-01 
 4.75174e-03  1.32727e-03  1.05001e-20  3.47944e+00  3.15783e-04  3.59702e+02  3.60053e+02  4.87105e+00  4.94139e+00  1.44176e-01  3.99966e+01  1.10346e+02  1.98431e+05 -3.88877e+05  7.49478e+02  0.00000e+00 -1.89697e+05  1.60674e+04 -1.73630e+05  1.44186e-01  1.00000e+00 -3.99089e+01  0.00000e+00  1.00588e+00 
 4.82366e-03  1.56534e-03  0.00000e+00  3.47944e+00  3.35900e-04  3.59707e+02  3.60052e+02  4.86432e+00  4.93894e+00  1.49180e-01  3.77584e+01  1.03737e+02  2.00640e+05 -3.66467e+05  7.04709e+02  0.00000e+00 -1.65122e+05  1.37811e+04 -1.51341e+05  1.49191e-01  1.00000e+00 -3.76745e+01  0.00000e+00  1.07031e+00 
 4.90611e-03  1.80349e-03  8.81027e-21  3.47944e+00  3.57558e-04  3.59713e+02  3.60052e+02  4.85626e+00  4.93535e+00  1.54937e-01  3.56334e+01  9.74539e+01  2.01366e+05 -3.46354e+05  6.62046e+02  0.00000e+00 -1.44326e+05  1.17633e+04 -1.32563e+05  1.54948e-01  1.00000e+00 -3.55528e+01  0.00000e+00  1.14765e+00 
 4.99859e-03  2.04170e-03  0.00000e+00  3.47944e+00  3.81020e-04  3.59721e+02  3.60052e+02  4.84680e+00  4.93046e+00  1.61446e-01  3.35677e+01  9.14530e+01  2.00472e+05 -3.27649e+05  6.21163e+02  0.00000e+00 -1.26556e+05  9.97935e+03 -1.16577e+05  1.61457e-01  1.00000e+00 -3.34902e+01  0.00000e+00  1.23882e+00 
 5.10055e-03  2.27996e-03  7.58893e-21  3.47944e+00  4.06274e-04  3.59729e+02  3.60052e+02  4.83604e+00  4.92292e+00  1.68608e-01  3.14023e+01  8.57682e+01  1.98036e+05 -3.09871e+05  5.82344e+02  0.00000e+00 -1.11253e+05  8.38293e+03 -1.02870e+05  1.68619e-01  1.00000e+00 -3.13279e+01  0.00000e+00  1.34504e+00 
 5.21143e-03  2.51826e-03  7.09702e-21  3.47944e+00  4.33095e-04  3.59739e+02  3.60052e+02  4.82407e+00  4.91105e+00  1.76366e-01  2.91375e+01  8.04567e+01  1.94287e+05 -2.92943e+05  5.45708e+02  0.00000e+00 -9.81100e+04  6.97522e+03 -9.11348e+04  1.76379e-01  1.00000e+00 -2.90666e+01  0.00000e+00  1.46761e+00 
 5.33068e-03  2.75659e-03  1.33300e-20  3.47944e+00  4.61012e-04  3.59749e+02  3.60052e+02  4.81036e+00  4.89646e+00  1.84604e-01  2.69961e+01  7.55848e+01  1.89633e+05 -2.76929e+05  5.11773e+02  0.00000e+00 -8.67843e+04  5.79988e+03 -8.09844e+04  1.84618e-01  1.00000e+00 -2.69282e+01  0.00000e+00  1.60808e+00 
 5.45775e-03  2.99495e-03  1.25651e-20  3.47944e+00  4.89370e-04  3.59761e+02  3.60052e+02  4.79479e+00  4.87979e+00  1.93352e-01  2.50283e+01  7.12049e+01  1.84515e+05 -2.62199e+05  4.81063e+02  0.00000e+00 -7.72029e+04  4.83599e+03 -7.23669e+04  1.93365e-01  1.00000e+00 -2.49631e+01  0.00000e+00  1.76809e+00 
 5.59212e-03  3.23333e-03  0.00000e+00  3.47944e+00  5.17330e-04  3.59773e+02  3.60052e+02  4.77720e+00  4.86103e+00  2.02457e-01  2.32402e+01  6.73565e+01  1.79468e+05 -2.48934e+05  4.53864e+02  0.00000e+00 -6.90116e+04  4.05637e+03 -6.49552e+04  2.02470e-01  1.00000e+00 -2.31771e+01  0.00000e+00  1.94987e+00 
 5.73326e-03  3.47172e-03  0.00000e+00  3.47944e+00  5.43992e-04  3.59786e+02  3.60053e+02  4.75752e+00  4.84016e+00  2.11880e-01  2.16379e+01  6.40553e+01  1.74890e+05 -2.37422e+05  4.30302e+02  0.00000e+00 -6.21011e+04  3.43147e+03 -5.86696e+04  2.11894e-01  1.00000e+00 -2.15764e+01  0.00000e+00  2.15471e+00 
 5.88069e-03  3.71014e-03 -5.35987e-21  3.47944e+00  5.68457e-04  3.59801e+02  3.60053e+02  4.73560e+00  4.81703e+00  2.21412e-01  2.01998e+01  6.12986e+01  1.71197e+05 -2.27763e+05  4.10262e+02  0.00000e+00 -5.61550e+04  2.93313e+03 -5.32218e+04  2.21430e-01  1.00000e+00 -2.01393e+01  0.00000e+00  2.38524e+00 
 6.03395e-03  3.94857e-03  5.10973e-21  3.47944e+00  5.90015e-04  3.59816e+02  3.60053e+02  4.71135e+00  4.79157e+00  2.31064e-01  1.89146e+01  5.90590e+01  1.68576e+05 -2.20156e+05  3.93686e+02  0.00000e+00 -5.11862e+04  2.53520e+03 -4.86510e+04  2.31084e-01  1.00000e+00 -1.88546e+01  0.00000e+00  2.64290e+00 
 6.19261e-03  4.18701e-03  0.00000e+00  3.47944e+00  6.08129e-04  3.59832e+02  3.60053e+02  4.68469e+00  4.76370e+00  2.40692e-01  1.77458e+01  5.73000e+01  1.67214e+05 -2.14608e+05  3.80190e+02  0.00000e+00 -4.70136e+04  2.21495e+03 -4.47987e+04  2.40713e-01  1.00000e+00 -1.76858e+01  0.00000e+00  2.93075e+00 
 6.35626e-03  4.42546e-03  0.00000e+00  3.47944e+00  6.22540e-04  3.59848e+02  3.60053e+02  4.65554e+00  4.73335e+00  2.50301e-01  1.66678e+01  5.59737e+01  1.67138e+05 -2.11146e+05  3.69515e+02  0.00000e+00 -4.36378e+04  1.95376e+03 -4.16841e+04  2.50322e-01  1.00000e+00 -1.66072e+01  0.00000e+00  3.25097e+00 
 6.52453e-03  4.66392e-03 -8.96437e-21  3.47944e+00  6.33170e-04  3.59866e+02  3.60053e+02  4.62382e+00  4.70044e+00  2.59785e-01  1.56380e+01  5.50341e+01  1.68399e+05 -2.09682e+05  3.61237e+02  0.00000e+00 -4.09223e+04  1.73597e+03 -3.91863e+04  2.59806e-01  1.00000e+00 -1.55764e+01  0.00000e+00  3.60736e+00 
 6.69707e-03  4.90238e-03  1.72236e-20  3.47944e+00  6.40140e-04  3.59884e+02  3.60053e+02  4.58941e+00  4.66487e+00  2.69137e-01  1.46254e+01  5.44350e+01  1.70961e+05 -2.10172e+05  3.55084e+02  0.00000e+00 -3.88562e+04  1.54952e+03 -3.73067e+04  2.69159e-01  1.00000e+00 -1.45623e+01  0.00000e+00  4.00275e+00 
 6.87356e-03  5.14086e-03  8.28595e-21  3.47944e+00  6.43637e-04  3.59902e+02  3.60053e+02  4.55227e+00  4.62658e+00  2.78257e-01  1.35896e+01  5.41395e+01  1.74871e+05 -2.12532e+05  3.50712e+02  0.00000e+00 -3.73111e+04  1.38438e+03 -3.59267e+04  2.78280e-01  1.00000e+00 -1.35246e+01  0.00000e+00  4.44275e+00 
 7.05370e-03  5.37934e-03 -1.59677e-20  3.47944e+00  6.43975e-04  3.59921e+02  3.60053e+02  4.51217e+00  4.58537e+00  2.87208e-01  1.25010e+01  5.41113e+01  1.80085e+05 -2.16774e+05  3.47903e+02  0.00000e+00 -3.63404e+04  1.23241e+03 -3.51080e+04  2.87231e-01  1.00000e+00 -1.24336e+01  0.00000e+00  4.93154e+00 
 7.23722e-03  5.61783e-03  0.00000e+00  3.47944e+00  6.41382e-04  3.59941e+02  3.60053e+02  4.46913e+00  4.54123e+00  2.95866e-01  1.13206e+01  5.43302e+01  1.86738e+05 -2.22881e+05  3.46405e+02  0.00000e+00 -3.57963e+04  1.08688e+03 -3.47094e+04  2.95891e-01  1.00000e+00 -1.12503e+01  0.00000e+00  5.47828e+00 
 7.42387e-03  5.85632e-03  0.00000e+00  3.47944e+00  6.36192e-04  3.59961e+02  3.60054e+02  4.42270e+00  4.49376e+00  3.04360e-01  1.00167e+01  5.47737e+01  1.94817e+05 -2.30990e+05  3.46096e+02  0.00000e+00 -3.58263e+04  9.41416e+02 -3.48849e+04  3.04385e-01  1.00000e+00 -9.94313e+00  0.00000e+00  6.08904e+00 
 7.61342e-03  6.09482e-03  0.00000e+00  3.47944e+00  6.28548e-04  3.59982e+02  3.60054e+02  4.37301e+00  4.44303e+00  3.12517e-01  8.54665e+00  5.54400e+01  2.04617e+05 -2.41201e+05  3.46808e+02  0.00000e+00 -3.62378e+04  7.90443e+02 -3.54474e+04  3.12545e-01  1.00000e+00 -8.46930e+00  0.00000e+00  6.77958e+00 
 7.80566e-03  6.33332e-03  0.00000e+00  3.47944e+00  6.18740e-04  3.60003e+02  3.60054e+02  4.31918e+00  4.38821e+00  3.20548e-01  6.86813e+00  5.63191e+01  2.16183e+05 -2.53853e+05  3.48498e+02  0.00000e+00 -3.73216e+04  6.27311e+02 -3.66943e+04  3.20577e-01  1.00000e+00 -6.78647e+00  0.00000e+00  7.55928e+00 
 8.00039e-03  6.57182e-03  0.00000e+00  3.47944e+00  6.06779e-04  3.60025e+02  3.60054e+02  4.26175e+00  4.32980e+00  3.28255e-01  4.92436e+00  5.74295e+01  2.30061e+05 -2.69266e+05  3.51070e+02  0.00000e+00 -3.88540e+04  4.45295e+02 -3.84087e+04  3.28286e-01  1.00000e+00 -4.83780e+00  0.00000e+00  8.45657e+00 
 8.19744e-03  6.81033e-03  1.31016e-20  3.47944e+00  5.92894e-04  3.60047e+02  3.60054e+02  4.19864e+00  4.26577e+00  3.35871e-01  2.64419e+00  5.87748e+01  2.46445e+05 -2.88051e+05  3.54512e+02  0.00000e+00 -4.12508e+04  2.34955e+02 -4.10158e+04  3.35902e-01  1.00000e+00 -2.55203e+00  0.00000e+00  9.48871e+00 
 8.39664e-03  7.04884e-03  0.00000e+00  3.47944e+00  5.76969e-04  3.60071e+02  3.60055e+02  4.13190e+00  4.19814e+00  3.43219e-01 -2.29174e-01  6.03974e+01  2.66250e+05 -3.10958e+05  3.59036e+02  0.00000e+00 -4.43487e+04 -4.19108e+01 -4.43906e+04  3.43247e-01  1.00000e+00  4.52687e-01  0.00000e+00  1.07053e+01 
 8.59784e-03  7.28736e-03  0.00000e+00  3.47944e+00  5.59215e-04  3.60096e+02  3.60055e+02  4.05602e+00  4.12141e+00  3.50582e-01 -7.75316e+00  6.23153e+01  2.89978e+05 -3.39076e+05  3.64179e+02  0.00000e+00 -4.87347e+04 -7.47498e+02 -4.94822e+04  3.50605e-01  1.00000e+00  7.99312e+00  0.00000e+00  1.21444e+01 
 8.80092e-03  7.52587e-03  0.00000e+00  3.47944e+00  5.39152e-04  3.60122e+02  3.60055e+02  3.97781e+00  4.04244e+00  3.57679e-01 -1.71069e+01  6.46346e+01  3.19765e+05 -3.74223e+05  3.70450e+02  0.00000e+00 -5.40875e+04 -1.65108e+03 -5.57385e+04  3.57703e-01  1.00000e+00  1.73663e+01  0.00000e+00  1.39230e+01 
 9.00573e-03  7.76439e-03 -1.17014e-20  3.47944e+00  5.16808e-04  3.60152e+02  3.60056e+02  3.88228e+00  3.94619e+00  3.64925e-01 -2.91529e+01  6.74296e+01  3.56793e+05 -4.19523e+05  3.77835e+02  0.00000e+00 -6.23526e+04 -2.86159e+03 -6.52142e+04  3.64947e-01  1.00000e+00  2.94353e+01  0.00000e+00  1.60989e+01 
 9.21216e-03  8.00291e-03  0.00000e+00  3.47944e+00  4.91372e-04  3.60185e+02  3.60056e+02  3.78891e+00  3.85208e+00  3.72010e-01 -4.53775e+01  7.09206e+01  4.06245e+05 -4.79420e+05  3.87448e+02  0.00000e+00 -7.27873e+04 -4.58262e+03 -7.73700e+04  3.72034e-01  1.00000e+00  4.56885e+01  0.00000e+00  1.89886e+01 
 9.42012e-03  8.24144e-03  0.00000e+00  3.47944e+00  4.62862e-04  3.60225e+02  3.60056e+02  3.65982e+00  3.72232e+00  3.79426e-01 -6.84202e+01  7.52896e+01  4.71830e+05 -5.62036e+05  3.98138e+02  0.00000e+00 -8.98074e+04 -7.17906e+03 -9.69865e+04  3.79449e-01  1.00000e+00  6.87669e+01  0.00000e+00  2.27651e+01 
 9.62949e-03  8.47996e-03  0.00000e+00  3.47944e+00  4.29831e-04  3.60275e+02  3.60057e+02  3.54039e+00  3.60086e+00  3.86899e-01 -1.03785e+02  8.10761e+01  5.68604e+05 -6.81594e+05  4.13932e+02  0.00000e+00 -1.12576e+05 -1.14856e+04 -1.24061e+05  3.86924e-01  1.00000e+00  1.04180e+02  0.00000e+00  2.83943e+01 
 9.84019e-03  8.71849e-03  0.00000e+00  3.47944e+00  3.92100e-04  3.60345e+02  3.60058e+02  3.34767e+00  3.40406e+00  3.94738e-01 -1.62927e+02  8.88789e+01  7.14138e+05 -8.66522e+05  4.30296e+02  0.00000e+00 -1.51954e+05 -1.93543e+04 -1.71308e+05  3.94761e-01  1.00000e+00  1.63385e+02  0.00000e+00  3.67913e+01 
 1.00521e-02  8.95702e-03  0.00000e+00  3.47944e+00  3.46908e-04  3.60453e+02  3.60058e+02  3.16993e+00  3.21943e+00  4.02936e-01 -2.79136e+02  1.00458e+02  9.76455e+05 -1.17881e+06  4.56019e+02  0.00000e+00 -2.01895e+05 -3.66850e+04 -2.38580e+05  4.02960e-01  1.00000e+00  2.79692e+02  0.00000e+00  5.27461e+01 
 1.02653e-02  9.19555e-03  0.00000e+00  3.47944e+00  2.94689e-04  3.60661e+02  3.60059e+02  2.81665e+00  2.85784e+00  4.12367e-01 -5.61137e+02  1.18262e+02  1.49833e+06 -1.74985e+06  4.74953e+02  0.00000e+00 -2.51045e+05 -8.47730e+04 -3.35818e+05  4.12383e-01  1.00000e+00  5.61849e+02  0.00000e+00  8.73544e+01 
 1.04795e-02  9.43408e-03  0.00000e+00  3.47944e+00  2.36151e-04  3.61233e+02  3.60060e+02  2.34092e+00  2.36853e+00  4.24317e-01 -4.99036e+03  1.47580e+02  2.93377e+06 -2.62743e+06  5.06375e+02  1.39590e+06  1.70274e+06 -1.70180e+06  9.36353e+02  4.24353e-01  1.00000e+00  4.99135e+03  3.39998e+03  2.21274e+02 
