# Code_Saturne plot output (1D profile)
#
# Iteration output: 2487
# Time output:      2.30058e+01
#
#COLUMN_TITLES: Distance | X | Y | Z | diameter_Field2 | temp_Field1 | temp_Field2 | Velocity_Field1[Z] | Velocity_Field2[Z] | vol_f_Field2 | mass_trans_Field1 | Xd_Field2 | BK | COAL | COMP | NUCL | W1 | MT | SMBR | ALPBB | CONDNUM | GAMA | GAMANUC | epsilon_Field1
 4.56474e-03  1.39645e-04  0.00000e+00  3.47944e+00  1.00000e-05  3.59385e+02  3.60050e+02  4.24180e+00  4.24177e+00  1.26236e-04  8.87797e+00  3.48539e+03  0.00000e+00 -5.51685e+04  1.33277e+04  0.00000e+00 -4.18408e+04  1.56895e+08  1.56853e+08  1.28329e-04  1.00000e+00 -8.87901e+00  0.00000e+00  3.53244e-01 
 4.57812e-03  3.76525e-04  4.25872e-21  3.47944e+00  1.00000e-05  3.59387e+02  3.60050e+02  4.24145e+00  4.24150e+00  5.03506e-04  3.83273e+01  3.48539e+03  0.00000e+00 -2.17496e+05  1.26479e+04  0.00000e+00 -2.04849e+05  1.72197e+08  1.71992e+08  5.04779e-04  1.00000e+00 -3.83318e+01  0.00000e+00  3.55685e-01 
 4.60371e-03  6.13858e-04  0.00000e+00  3.47944e+00  1.35194e-05  3.59392e+02  3.60050e+02  4.24110e+00  4.24130e+00  2.12763e-03  1.02761e+02  2.57806e+03 4.21613e-183 -5.51263e+05  1.11072e+04  0.00000e+00 -5.40156e+05  8.18960e+07  8.13558e+07  2.10809e-03  1.00000e+00 -1.02772e+02  0.00000e+00  3.60468e-01 
 4.64138e-03  8.51483e-04  0.00000e+00  3.47944e+00  2.11300e-05  3.59399e+02  3.60050e+02  4.24006e+00  4.24075e+00  5.51635e-03  1.35468e+02  1.64950e+03  1.15887e-80 -6.83290e+05  7.82436e+03  0.00000e+00 -6.75466e+05  2.64500e+07  2.57746e+07  5.50546e-03  1.00000e+00 -1.35483e+02  0.00000e+00  3.67683e-01 
 4.69084e-03  1.08931e-03  0.00000e+00  3.47944e+00  3.09861e-05  3.59406e+02  3.60049e+02  4.23871e+00  4.24045e+00  9.41032e-03  1.25238e+02  1.12482e+03  1.58364e-37 -6.15964e+05  5.52242e+03  0.00000e+00 -6.10442e+05  9.75631e+06  9.14587e+06  9.40440e-03  1.00000e+00 -1.25252e+02  0.00000e+00  3.77316e-01 
 4.75174e-03  1.32727e-03  1.05001e-20  3.47944e+00  4.24156e-05  3.59414e+02  3.60049e+02  4.23753e+00  4.24092e+00  1.27497e-02  1.01811e+02  8.21723e+02  2.93341e-18 -4.95035e+05  4.07651e+03  0.00000e+00 -4.90959e+05  4.27282e+06  3.78186e+06  1.27474e-02  1.00000e+00 -1.01823e+02  0.00000e+00  3.89412e-01 
 4.82366e-03  1.56534e-03  0.00000e+00  3.47944e+00  5.43154e-05  3.59424e+02  3.60049e+02  4.23540e+00  4.24082e+00  1.54552e-02  8.27794e+01  6.41693e+02  5.02683e-09 -3.98683e+05  3.19035e+03  0.00000e+00 -3.95493e+05  2.23714e+06  1.84165e+06  1.54547e-02  1.00000e+00 -8.27892e+01  0.00000e+00  4.04130e-01 
 4.90611e-03  1.80349e-03  8.81027e-21  3.47944e+00  6.56815e-05  3.59436e+02  3.60049e+02  4.23277e+00  4.24064e+00  1.80578e-02  6.97140e+01  5.30649e+02  3.15793e-04 -3.41453e+05  2.63921e+03  0.00000e+00 -3.38814e+05  1.33324e+06  9.94424e+05  1.80578e-02  1.00000e+00 -6.97225e+01  0.00000e+00  4.21729e-01 
 4.99859e-03  2.04170e-03  0.00000e+00  3.47944e+00  7.59745e-05  3.59450e+02  3.60049e+02  4.22956e+00  4.23958e+00  2.10404e-02  6.39130e+01  4.58757e+02  1.67773e-01 -3.15016e+05  2.28223e+03  0.00000e+00 -3.12734e+05  9.06841e+05  5.94108e+05  2.10406e-02  1.00000e+00 -6.39210e+01  0.00000e+00  4.42723e-01 
 5.10055e-03  2.27996e-03  7.58893e-21  3.47944e+00  8.53136e-05  3.59466e+02  3.60049e+02  4.22566e+00  4.23765e+00  2.44554e-02  6.11526e+01  4.08538e+02  8.77795e+00 -3.05451e+05  2.03263e+03  0.00000e+00 -3.03410e+05  6.64775e+05  3.61365e+05  2.44557e-02  1.00000e+00 -6.11605e+01  0.00000e+00  4.67582e-01 
 5.21143e-03  2.51826e-03  7.09702e-21  3.47944e+00  9.40235e-05  3.59486e+02  3.60049e+02  4.22103e+00  4.23486e+00  2.83568e-02  5.99445e+01  3.70693e+02  1.35155e+02 -3.05623e+05  1.84423e+03  0.00000e+00 -3.03644e+05  5.09921e+05  2.06278e+05  2.83571e-02  1.00000e+00 -5.99525e+01  0.00000e+00  4.97001e-01 
 5.33068e-03  2.75659e-03  1.33300e-20  3.47944e+00  1.02299e-04  3.59507e+02  3.60049e+02  4.21563e+00  4.23119e+00  3.28160e-02  5.96491e+01  3.40704e+02  1.00285e+03 -3.12603e+05  1.69457e+03  0.00000e+00 -3.09906e+05  4.02985e+05  9.30796e+04  3.28165e-02  1.00000e+00 -5.96573e+01  0.00000e+00  5.31961e-01 
 5.45775e-03  2.99495e-03  1.25651e-20  3.47944e+00  1.10156e-04  3.59531e+02  3.60049e+02  4.20940e+00  4.22656e+00  3.79139e-02  5.99970e+01  3.16404e+02  4.56409e+03 -3.25635e+05  1.57289e+03  0.00000e+00 -3.19498e+05  3.25812e+05  6.31445e+03  3.79145e-02  1.00000e+00 -6.00056e+01  0.00000e+00  5.73611e-01 
 5.59212e-03  3.23333e-03  0.00000e+00  3.47944e+00  1.17464e-04  3.59558e+02  3.60049e+02  4.20225e+00  4.22085e+00  4.37392e-02  6.09031e+01  2.96719e+02  1.45896e+04 -3.45208e+05  1.47384e+03  0.00000e+00 -3.29145e+05  2.68849e+05 -6.02955e+04  4.37398e-02  1.00000e+00 -6.09123e+01  0.00000e+00  6.23321e-01 
 5.73326e-03  3.47172e-03  0.00000e+00  3.47944e+00  1.24020e-04  3.59586e+02  3.60049e+02  4.19405e+00  4.21390e+00  5.03882e-02  6.23597e+01  2.81034e+02  3.58129e+04 -3.72597e+05  1.39440e+03  0.00000e+00 -3.35390e+05  2.26325e+05 -1.09065e+05  5.03889e-02  1.00000e+00 -6.23697e+01  0.00000e+00  6.82733e-01 
 5.88069e-03  3.71014e-03 -5.35987e-21  3.47944e+00  1.29633e-04  3.59616e+02  3.60049e+02  4.18469e+00  4.20555e+00  5.79601e-02  6.43608e+01  2.68865e+02  7.21755e+04 -4.09519e+05  1.33209e+03  0.00000e+00 -3.36012e+05  1.94281e+05 -1.41731e+05  5.79609e-02  1.00000e+00 -6.43717e+01  0.00000e+00  7.53816e-01 
 6.03395e-03  3.94857e-03  5.10973e-21  3.47944e+00  1.34204e-04  3.59647e+02  3.60049e+02  4.17401e+00  4.19562e+00  6.65554e-02  6.65137e+01  2.59709e+02  1.25903e+05 -4.57908e+05  1.28436e+03  0.00000e+00 -3.30720e+05  1.68897e+05 -1.61824e+05  6.65562e-02  1.00000e+00 -6.65257e+01  0.00000e+00  8.38935e-01 
 6.19261e-03  4.18701e-03  0.00000e+00  3.47944e+00  1.37741e-04  3.59679e+02  3.60049e+02  4.16181e+00  4.18395e+00  7.62732e-02  6.85117e+01  2.53039e+02  1.97965e+05 -5.19843e+05  1.24856e+03  0.00000e+00 -3.20630e+05  1.47909e+05 -1.72721e+05  7.62740e-02  1.00000e+00 -6.85250e+01  0.00000e+00  9.40890e-01 
 6.35626e-03  4.42546e-03  0.00000e+00  3.47944e+00  1.40332e-04  3.59712e+02  3.60049e+02  4.14790e+00  4.17035e+00  8.71852e-02  7.05212e+01  2.48368e+02  2.88949e+05 -5.97485e+05  1.22214e+03  0.00000e+00 -3.07314e+05  1.30736e+05 -1.76578e+05  8.71860e-02  1.00000e+00 -7.05361e+01  0.00000e+00  1.06303e+00 
 6.52453e-03  4.66392e-03 -8.96437e-21  3.47944e+00  1.42128e-04  3.59746e+02  3.60049e+02  4.13200e+00  4.15445e+00  9.93543e-02  7.23007e+01  2.45230e+02  3.99742e+05 -6.93043e+05  1.20276e+03  0.00000e+00 -2.92098e+05  1.16134e+05 -1.75964e+05  9.93551e-02  1.00000e+00 -7.23173e+01  0.00000e+00  1.20923e+00 
 6.69707e-03  4.90238e-03  1.72236e-20  3.47944e+00  1.43305e-04  3.59778e+02  3.60050e+02  4.11383e+00  4.13616e+00  1.12791e-01  7.35810e+01  2.43215e+02  5.31613e+05 -8.08481e+05  1.18821e+03  0.00000e+00 -2.75680e+05  1.03258e+05 -1.72422e+05  1.12791e-01  1.00000e+00 -7.35996e+01  0.00000e+00  1.38410e+00 
 6.87356e-03  5.14086e-03  8.28595e-21  3.47944e+00  1.44037e-04  3.59811e+02  3.60050e+02  4.09306e+00  4.11515e+00  1.27482e-01  7.41015e+01  2.41979e+02  6.85781e+05 -9.45608e+05  1.17675e+03  0.00000e+00 -2.58650e+05  9.15398e+04 -1.67110e+05  1.27482e-01  1.00000e+00 -7.41224e+01  0.00000e+00  1.59286e+00 
 7.05370e-03  5.37934e-03 -1.59677e-20  3.47944e+00  1.44477e-04  3.59842e+02  3.60050e+02  4.06932e+00  4.09106e+00  1.43329e-01  7.36180e+01  2.41243e+02  8.63108e+05 -1.10550e+06  1.16685e+03  0.00000e+00 -2.41229e+05  8.06440e+04 -1.60584e+05  1.43329e-01  1.00000e+00 -7.36412e+01  0.00000e+00  1.84160e+00 
 7.23722e-03  5.61783e-03  0.00000e+00  3.47944e+00  1.44757e-04  3.59871e+02  3.60050e+02  4.04218e+00  4.06351e+00  1.60224e-01  7.19631e+01  2.40776e+02  1.06350e+06 -1.28872e+06  1.15728e+03  0.00000e+00 -2.24063e+05  7.03856e+04 -1.53677e+05  1.60223e-01  1.00000e+00 -7.19888e+01  0.00000e+00  2.13695e+00 
 7.42387e-03  5.85632e-03  0.00000e+00  3.47944e+00  1.44980e-04  3.59898e+02  3.60050e+02  4.01122e+00  4.03208e+00  1.77943e-01  6.90355e+01  2.40407e+02  1.28608e+06 -1.49455e+06  1.14706e+03  0.00000e+00 -2.07327e+05  6.07081e+04 -1.46619e+05  1.77943e-01  1.00000e+00 -6.90638e+01  0.00000e+00  2.48664e+00 
 7.61342e-03  6.09482e-03  0.00000e+00  3.47944e+00  1.45224e-04  3.59924e+02  3.60050e+02  3.97599e+00  3.99634e+00  1.96292e-01  6.48532e+01  2.40003e+02  1.52866e+06 -1.72171e+06  1.13546e+03  0.00000e+00 -1.91913e+05  5.16160e+04 -1.40297e+05  1.96290e-01  1.00000e+00 -6.48839e+01  0.00000e+00  2.89895e+00 
 7.80566e-03  6.33332e-03  0.00000e+00  3.47944e+00  1.45526e-04  3.59947e+02  3.60050e+02  3.93606e+00  3.95587e+00  2.14975e-01  5.95230e+01  2.39506e+02  1.78876e+06 -1.96795e+06  1.12205e+03  0.00000e+00 -1.78069e+05  4.31705e+04 -1.34898e+05  2.14973e-01  1.00000e+00 -5.95561e+01  0.00000e+00  3.38379e+00 
 8.00039e-03  6.57182e-03  0.00000e+00  3.47944e+00  1.45893e-04  3.59968e+02  3.60050e+02  3.89096e+00  3.91020e+00  2.33749e-01  5.32447e+01  2.38903e+02  2.06342e+06 -2.23118e+06  1.10668e+03  0.00000e+00 -1.66651e+05  3.54298e+04 -1.31221e+05  2.33746e-01  1.00000e+00 -5.32801e+01  0.00000e+00  3.95220e+00 
 8.19744e-03  6.81033e-03  1.31016e-20  3.47944e+00  1.46285e-04  3.59986e+02  3.60050e+02  3.84041e+00  3.85905e+00  2.52364e-01  4.62729e+01  2.38266e+02  2.35110e+06 -2.51045e+06  1.08958e+03  0.00000e+00 -1.58265e+05  2.84474e+04 -1.29818e+05  2.52361e-01  1.00000e+00 -4.63104e+01  0.00000e+00  4.61893e+00 
 8.39664e-03  7.04884e-03  0.00000e+00  3.47944e+00  1.46619e-04  3.60002e+02  3.60050e+02  3.78384e+00  3.80188e+00  2.70583e-01  3.88611e+01  2.37723e+02  2.65221e+06 -2.80656e+06  1.07121e+03  0.00000e+00 -1.53273e+05  2.22360e+04 -1.31037e+05  2.70580e-01  1.00000e+00 -3.89006e+01  0.00000e+00  5.40323e+00 
 8.59784e-03  7.28736e-03  0.00000e+00  3.47944e+00  1.46775e-04  3.60017e+02  3.60050e+02  3.72090e+00  3.73828e+00  2.88315e-01  3.12336e+01  2.37471e+02  2.97049e+06 -3.12484e+06  1.05226e+03  0.00000e+00 -1.53300e+05  1.67598e+04 -1.36541e+05  2.88311e-01  1.00000e+00 -3.12748e+01  0.00000e+00  6.33319e+00 
 8.80092e-03  7.52587e-03  0.00000e+00  3.47944e+00  1.46571e-04  3.60030e+02  3.60051e+02  3.65071e+00  3.66739e+00  3.05365e-01  2.35129e+01  2.37804e+02  3.31595e+06 -3.47517e+06  1.03365e+03  0.00000e+00 -1.58185e+05  1.19351e+04 -1.46250e+05  3.05361e-01  1.00000e+00 -2.35559e+01  0.00000e+00  7.45250e+00 
 9.00573e-03  7.76439e-03 -1.17014e-20  3.47944e+00  1.45817e-04  3.60041e+02  3.60051e+02  3.57231e+00  3.58822e+00  3.21866e-01  1.56899e+01  2.39033e+02  3.70350e+06 -3.87639e+06  1.01631e+03  0.00000e+00 -1.71874e+05  7.60272e+03 -1.64271e+05  3.21859e-01  1.00000e+00 -1.57346e+01  0.00000e+00  8.82673e+00 
 9.21216e-03  8.00291e-03  0.00000e+00  3.47944e+00  1.44213e-04  3.60052e+02  3.60051e+02  3.48421e+00  3.49924e+00  3.37645e-01  7.53856e+00  2.41693e+02  4.16539e+06 -4.35995e+06  1.00141e+03  0.00000e+00 -1.93551e+05  3.53255e+03 -1.90019e+05  3.37641e-01  1.00000e+00 -7.58509e+00  0.00000e+00  1.05752e+01 
 9.42012e-03  8.24144e-03  0.00000e+00  3.47944e+00  1.41518e-04  3.60062e+02  3.60051e+02  3.38231e+00  3.39635e+00  3.53094e-01 -3.30765e+00  2.46299e+02  4.74280e+06 -4.97628e+06  9.89824e+02  0.00000e+00 -2.32490e+05 -1.46792e+03 -2.33958e+05  3.53088e-01  1.00000e+00  3.23446e+00  0.00000e+00  1.28804e+01 
 9.62949e-03  8.47996e-03  0.00000e+00  3.47944e+00  1.37277e-04  3.60073e+02  3.60052e+02  3.26616e+00  3.27903e+00  3.68171e-01 -2.79048e+01  2.53909e+02  5.53516e+06 -5.82369e+06  9.83042e+02  0.00000e+00 -2.87546e+05 -1.24872e+04 -3.00033e+05  3.68164e-01  1.00000e+00  2.78296e+01  0.00000e+00  1.61527e+01 
 9.84019e-03  8.71849e-03  0.00000e+00  3.47944e+00  1.31025e-04  3.60087e+02  3.60052e+02  3.11941e+00  3.13098e+00  3.83078e-01 -6.92310e+01  2.66026e+02  6.70290e+06 -7.07593e+06  9.82095e+02  0.00000e+00 -3.72045e+05 -3.12449e+04 -4.03290e+05  3.83069e-01  1.00000e+00  6.91534e+01  0.00000e+00  2.11194e+01 
 1.00521e-02  8.95702e-03  0.00000e+00  3.47944e+00  1.22016e-04  3.60116e+02  3.60053e+02  2.94316e+00  2.95325e+00  3.97715e-01 -1.64592e+02  2.85671e+02  8.71530e+06 -9.15999e+06  9.88625e+02  0.00000e+00 -4.43695e+05 -7.68809e+04 -5.20576e+05  3.97706e-01  1.00000e+00  1.64511e+02  0.00000e+00  3.00201e+01 
 1.02653e-02  9.19555e-03  0.00000e+00  3.47944e+00  1.10627e-04  3.60193e+02  3.60053e+02  2.67452e+00  2.68257e+00  4.12947e-01 -4.75762e+02  3.15084e+02  1.26389e+07 -1.28939e+07  9.83310e+02  0.00000e+00 -2.53985e+05 -2.36136e+05 -4.90120e+05  4.12943e-01  1.00000e+00  4.75678e+02  0.00000e+00  4.95935e+01 
 1.04795e-02  9.43408e-03  0.00000e+00  3.47944e+00  1.00997e-04  3.60540e+02  3.60054e+02  2.24449e+00  2.24916e+00  4.30256e-01 -5.26753e+03  3.45133e+02  2.22490e+07 -1.92254e+07  9.39353e+02  1.33678e+06  4.36137e+06 -4.45638e+06 -9.50033e+04  4.30241e-01  1.00000e+00  5.26744e+03  3.19255e+03  1.23847e+02 
