# Code_Saturne plot output (1D profile)
#
# Iteration output: 4934
# Time output:      2.30001e+01
#
#COLUMN_TITLES: Distance | X | Y | Z | diameter_Field2 | temp_Field1 | temp_Field2 | Velocity_Field1[Z] | Velocity_Field2[Z] | vol_f_Field2 | mass_trans_Field1 | Xd_Field2 | BK | COAL | COMP | NUCL | W1 | MT | SMBR | ALPBB | CONDNUM | GAMA | GAMANUC | epsilon_Field1
 4.56474e-03  1.39645e-04  0.00000e+00  3.47944e+00  4.19608e-04  3.60004e+02  3.60058e+02  5.32834e+00  5.42277e+00  2.49292e-01  8.94585e+00  8.30194e+01  2.94442e+05 -5.65848e+05  6.71924e+02  0.00000e+00 -2.70734e+05  1.89541e+03 -2.68839e+05  2.49291e-01  1.00000e+00 -9.00365e+00  0.00000e+00  1.47311e+00 
 4.57812e-03  3.76525e-04  4.25872e-21  3.47944e+00  4.44275e-04  3.60005e+02  3.60058e+02  5.32668e+00  5.42411e+00  2.50226e-01  8.20392e+00  7.84100e+01  2.79023e+05 -5.09925e+05  6.34994e+02  0.00000e+00 -2.30267e+05  1.63565e+03 -2.28631e+05  2.50224e-01  1.00000e+00 -8.25725e+00  0.00000e+00  1.48808e+00 
 4.60371e-03  6.13858e-04  0.00000e+00  3.47944e+00  4.61402e-04  3.60006e+02  3.60058e+02  5.32387e+00  5.42208e+00  2.51524e-01  7.70455e+00  7.54995e+01  2.70454e+05 -4.78069e+05  6.11421e+02  0.00000e+00 -2.07003e+05  1.47155e+03 -2.05532e+05  2.51522e-01  1.00000e+00 -7.75525e+00  0.00000e+00  1.51688e+00 
 4.64138e-03  8.51483e-04  0.00000e+00  3.47944e+00  4.76939e-04  3.60007e+02  3.60058e+02  5.31958e+00  5.41788e+00  2.53439e-01  7.25809e+00  7.30400e+01  2.64161e+05 -4.53825e+05  5.91308e+02  0.00000e+00 -1.89073e+05  1.33115e+03 -1.87741e+05  2.53437e-01  1.00000e+00 -7.30676e+00  0.00000e+00  1.55982e+00 
 4.69084e-03  1.08931e-03  0.00000e+00  3.47944e+00  4.93145e-04  3.60009e+02  3.60058e+02  5.31379e+00  5.41181e+00  2.55946e-01  6.80420e+00  7.06398e+01  2.58501e+05 -4.31746e+05  5.71524e+02  0.00000e+00 -1.72673e+05  1.19528e+03 -1.71478e+05  2.55944e-01  1.00000e+00 -6.85102e+00  0.00000e+00  1.61740e+00 
 4.75174e-03  1.32727e-03  1.05001e-20  3.47944e+00  5.10720e-04  3.60011e+02  3.60058e+02  5.30645e+00  5.40392e+00  2.59004e-01  6.33041e+00  6.82088e+01  2.52930e+05 -4.10227e+05  5.51378e+02  0.00000e+00 -1.56746e+05  1.06136e+03 -1.55685e+05  2.59001e-01  1.00000e+00 -6.37545e+00  0.00000e+00  1.69039e+00 
 4.82366e-03  1.56534e-03  0.00000e+00  3.47944e+00  5.29807e-04  3.60014e+02  3.60058e+02  5.29752e+00  5.39426e+00  2.62638e-01  5.84013e+00  6.57515e+01  2.47241e+05 -3.88965e+05  5.30925e+02  0.00000e+00 -1.41193e+05  9.31101e+02 -1.40262e+05  2.62636e-01  1.00000e+00 -5.88345e+00  0.00000e+00  1.77960e+00 
 4.90611e-03  1.80349e-03  8.81027e-21  3.47944e+00  5.50090e-04  3.60017e+02  3.60058e+02  5.28693e+00  5.38281e+00  2.66771e-01  5.34192e+00  6.33271e+01  2.41560e+05 -3.68204e+05  5.10650e+02  0.00000e+00 -1.26134e+05  8.07868e+02 -1.25326e+05  2.66769e-01  1.00000e+00 -5.38361e+00  0.00000e+00  1.88613e+00 
 4.99859e-03  2.04170e-03  0.00000e+00  3.47944e+00  5.71049e-04  3.60020e+02  3.60058e+02  5.27461e+00  5.36951e+00  2.71404e-01  4.84551e+00  6.10030e+01  2.36080e+05 -3.48465e+05  4.91117e+02  0.00000e+00 -1.11893e+05  6.94190e+02 -1.11199e+05  2.71403e-01  1.00000e+00 -4.88573e+00  0.00000e+00  2.01109e+00 
 5.10055e-03  2.27996e-03  7.58893e-21  3.47944e+00  5.91935e-04  3.60024e+02  3.60058e+02  5.26050e+00  5.35434e+00  2.76459e-01  4.35817e+00  5.88506e+01  2.31130e+05 -3.30296e+05  4.72889e+02  0.00000e+00 -9.86930e+04  5.91700e+02 -9.81013e+04  2.76457e-01  1.00000e+00 -4.39710e+00  0.00000e+00  2.15582e+00 
 5.21143e-03  2.51826e-03  7.09702e-21  3.47944e+00  6.11946e-04  3.60029e+02  3.60058e+02  5.24449e+00  5.33722e+00  2.81911e-01  3.88409e+00  5.69262e+01  2.27000e+05 -3.14224e+05  4.56441e+02  0.00000e+00 -8.67680e+04  5.00633e+02 -8.62674e+04  2.81910e-01  1.00000e+00 -3.92200e+00  0.00000e+00  2.32161e+00 
 5.33068e-03  2.75659e-03  1.33300e-20  3.47944e+00  6.30253e-04  3.60033e+02  3.60058e+02  5.22654e+00  5.31809e+00  2.87649e-01  3.42312e+00  5.52726e+01  2.24003e+05 -3.00610e+05  4.42071e+02  0.00000e+00 -7.61654e+04  4.20309e+02 -7.57451e+04  2.87648e-01  1.00000e+00 -3.46027e+00  0.00000e+00  2.50996e+00 
 5.45775e-03  2.99495e-03  1.25651e-20  3.47944e+00  6.46194e-04  3.60038e+02  3.60058e+02  5.20656e+00  5.29690e+00  2.93728e-01  2.97274e+00  5.39093e+01  2.22304e+05 -2.89791e+05  4.29929e+02  0.00000e+00 -6.70566e+04  3.49147e+02 -6.67075e+04  2.93729e-01  1.00000e+00 -3.00943e+00  0.00000e+00  2.72234e+00 
 5.59212e-03  3.23333e-03  0.00000e+00  3.47944e+00  6.59250e-04  3.60044e+02  3.60058e+02  5.18448e+00  5.27358e+00  3.00057e-01  2.52630e+00  5.28417e+01  2.22088e+05 -2.81837e+05  4.19999e+02  0.00000e+00 -5.93289e+04  2.85294e+02 -5.90436e+04  3.00061e-01  1.00000e+00 -2.56284e+00  0.00000e+00  2.96120e+00 
 5.73326e-03  3.47172e-03  0.00000e+00  3.47944e+00  6.69155e-04  3.60050e+02  3.60058e+02  5.16025e+00  5.24812e+00  3.06577e-01  2.07538e+00  5.20596e+01  2.23386e+05 -2.76711e+05  4.12238e+02  0.00000e+00 -5.29130e+04  2.26703e+02 -5.26863e+04  3.06583e-01  1.00000e+00 -2.11205e+00  0.00000e+00  3.22730e+00 
 5.88069e-03  3.71014e-03 -5.35987e-21  3.47944e+00  6.75817e-04  3.60056e+02  3.60058e+02  5.13380e+00  5.22042e+00  3.13128e-01  1.61046e+00  5.15466e+01  2.26287e+05 -2.74248e+05  4.06427e+02  0.00000e+00 -4.75553e+04  1.71435e+02 -4.73839e+04  3.13138e-01  1.00000e+00 -1.64755e+00  0.00000e+00  3.52328e+00 
 6.03395e-03  3.94857e-03  5.10973e-21  3.47944e+00  6.79383e-04  3.60062e+02  3.60059e+02  5.10509e+00  5.19047e+00  3.19743e-01  1.12269e+00  5.12761e+01  2.30722e+05 -2.74333e+05  4.02430e+02  0.00000e+00 -4.32084e+04  1.17632e+02 -4.30908e+04  3.19751e-01  1.00000e+00 -1.16045e+00  0.00000e+00  3.85095e+00 
 6.19261e-03  4.18701e-03  0.00000e+00  3.47944e+00  6.80061e-04  3.60068e+02  3.60059e+02  5.07404e+00  5.15820e+00  3.26330e-01  6.02915e-01  5.12252e+01  2.36715e+05 -2.76789e+05  3.99946e+02  0.00000e+00 -3.96741e+04  6.36605e+01 -3.96104e+04  3.26333e-01  1.00000e+00 -6.41584e-01  0.00000e+00  4.21368e+00 
 6.35626e-03  4.42546e-03  0.00000e+00  3.47944e+00  6.78175e-04  3.60075e+02  3.60059e+02  5.04057e+00  5.12352e+00  3.32939e-01  4.26768e-02  5.13677e+01  2.44183e+05 -2.81518e+05  3.98844e+02  0.00000e+00 -3.69357e+04  8.04586e+00 -3.69277e+04  3.32936e-01  1.00000e+00 -8.24988e-02  0.00000e+00  4.61398e+00 
 6.52453e-03  4.66392e-03 -8.96437e-21  3.47944e+00  6.74009e-04  3.60082e+02  3.60059e+02  5.00463e+00  5.08638e+00  3.39480e-01 -1.39449e+00  5.16854e+01  2.53184e+05 -2.88377e+05  3.98864e+02  0.00000e+00 -3.47939e+04 -1.25179e+02 -3.49191e+04  3.39470e-01  1.00000e+00  1.30067e+00  0.00000e+00  5.05672e+00 
 6.69707e-03  4.90238e-03  1.72236e-20  3.47944e+00  6.67891e-04  3.60088e+02  3.60059e+02  4.96604e+00  5.04662e+00  3.45987e-01 -2.92760e+00  5.21591e+01  2.63677e+05 -2.97323e+05  3.99886e+02  0.00000e+00 -3.32461e+04 -2.69715e+02 -3.35158e+04  3.45972e-01  1.00000e+00  2.83021e+00  0.00000e+00  5.54532e+00 
 6.87356e-03  5.14086e-03  8.28595e-21  3.47944e+00  6.60021e-04  3.60095e+02  3.60059e+02  4.92478e+00  5.00417e+00  3.52377e-01 -4.62015e+00  5.27812e+01  2.75818e+05 -3.08352e+05  4.01759e+02  0.00000e+00 -3.21322e+04 -4.27866e+02 -3.25601e+04  3.52359e-01  1.00000e+00  4.51873e+00  0.00000e+00  6.08712e+00 
 7.05370e-03  5.37934e-03 -1.59677e-20  3.47944e+00  6.50667e-04  3.60103e+02  3.60059e+02  4.88057e+00  4.95882e+00  3.58705e-01 -6.50300e+00  5.35402e+01  2.89628e+05 -3.21537e+05  4.04393e+02  0.00000e+00 -3.15048e+04 -6.03597e+02 -3.21084e+04  3.58684e-01  1.00000e+00  6.39707e+00  0.00000e+00  6.68732e+00 
 7.23722e-03  5.61783e-03  0.00000e+00  3.47944e+00  6.39914e-04  3.60110e+02  3.60060e+02  4.83346e+00  4.91058e+00  3.64868e-01 -8.61029e+00  5.44401e+01  3.05424e+05 -3.37031e+05  4.07721e+02  0.00000e+00 -3.12000e+04 -8.01666e+02 -3.20016e+04  3.64845e-01  1.00000e+00  8.49935e+00  0.00000e+00  7.35749e+00 
 7.42387e-03  5.85632e-03  0.00000e+00  3.47944e+00  6.27967e-04  3.60117e+02  3.60060e+02  4.78289e+00  4.85894e+00  3.70974e-01 -1.09901e+01  5.54761e+01  3.23294e+05 -3.55078e+05  4.11666e+02  0.00000e+00 -3.13730e+04 -1.02792e+03 -3.24009e+04  3.70950e-01  1.00000e+00  1.08736e+01  0.00000e+00  8.10600e+00 
 7.61342e-03  6.09482e-03  0.00000e+00  3.47944e+00  6.14787e-04  3.60125e+02  3.60060e+02  4.72906e+00  4.80404e+00  3.76908e-01 -1.37008e+01  5.66657e+01  3.43800e+05 -3.76082e+05  4.16329e+02  0.00000e+00 -3.18650e+04 -1.29048e+03 -3.31555e+04  3.76883e-01  1.00000e+00  1.35782e+01  0.00000e+00  8.95196e+00 
 7.80566e-03  6.33332e-03  0.00000e+00  3.47944e+00  6.00529e-04  3.60133e+02  3.60060e+02  4.67089e+00  4.74484e+00  3.82786e-01 -1.68257e+01  5.80115e+01  3.67176e+05 -4.00504e+05  4.21576e+02  0.00000e+00 -3.29062e+04 -1.59953e+03 -3.45058e+04  3.82765e-01  1.00000e+00  1.66962e+01  0.00000e+00  9.90926e+00 
 8.00039e-03  6.57182e-03  0.00000e+00  3.47944e+00  5.85029e-04  3.60142e+02  3.60061e+02  4.60912e+00  4.68207e+00  3.88463e-01 -2.04765e+01  5.95487e+01  3.94399e+05 -4.29163e+05  4.27703e+02  0.00000e+00 -3.43367e+04 -1.97093e+03 -3.63077e+04  3.88447e-01  1.00000e+00  2.03395e+01  0.00000e+00  1.10096e+01 
 8.19744e-03  6.81033e-03  1.31016e-20  3.47944e+00  5.68431e-04  3.60151e+02  3.60061e+02  4.54116e+00  4.61314e+00  3.94176e-01 -2.48121e+01  6.12880e+01  4.25910e+05 -4.62982e+05  4.34270e+02  0.00000e+00 -3.66376e+04 -2.42436e+03 -3.90620e+04  3.94163e-01  1.00000e+00  2.46665e+01  0.00000e+00  1.22795e+01 
 8.39664e-03  7.04884e-03  0.00000e+00  3.47944e+00  5.50405e-04  3.60161e+02  3.60061e+02  4.46983e+00  4.54090e+00  3.99684e-01 -3.00716e+01  6.32955e+01  4.63674e+05 -5.03473e+05  4.41692e+02  0.00000e+00 -3.93570e+04 -2.99479e+03 -4.23518e+04  3.99671e-01  1.00000e+00  2.99163e+01  0.00000e+00  1.37882e+01 
 8.59784e-03  7.28736e-03  0.00000e+00  3.47944e+00  5.31127e-04  3.60172e+02  3.60061e+02  4.38810e+00  4.45826e+00  4.05328e-01 -3.65944e+01  6.55934e+01  5.08343e+05 -5.52625e+05  4.49938e+02  0.00000e+00 -4.38317e+04 -3.72641e+03 -4.75581e+04  4.05313e-01  1.00000e+00  3.64279e+01  0.00000e+00  1.55663e+01 
 8.80092e-03  7.52587e-03  0.00000e+00  3.47944e+00  5.10010e-04  3.60186e+02  3.60062e+02  4.30492e+00  4.37421e+00  4.10813e-01 -4.49496e+01  6.83098e+01  5.64141e+05 -6.13643e+05  4.59717e+02  0.00000e+00 -4.90418e+04 -4.70578e+03 -5.37476e+04  4.10795e-01  1.00000e+00  4.47700e+01  0.00000e+00  1.77791e+01 
 9.00573e-03  7.76439e-03 -1.17014e-20  3.47944e+00  4.87233e-04  3.60202e+02  3.60062e+02  4.20159e+00  4.27001e+00  4.16497e-01 -5.59915e+01  7.15038e+01  6.32941e+05 -6.91024e+05  4.70483e+02  0.00000e+00 -5.76129e+04 -6.05523e+03 -6.36682e+04  4.16474e-01  1.00000e+00  5.57964e+01  0.00000e+00  2.04917e+01 
 9.21216e-03  8.00291e-03  0.00000e+00  3.47944e+00  4.61777e-04  3.60221e+02  3.60063e+02  4.10310e+00  4.17038e+00  4.22165e-01 -7.13469e+01  7.54462e+01  7.24680e+05 -7.93144e+05  4.84123e+02  0.00000e+00 -6.79799e+04 -8.03585e+03 -7.60157e+04  4.22140e-01  1.00000e+00  7.11326e+01  0.00000e+00  2.41209e+01 
 9.42012e-03  8.24144e-03  0.00000e+00  3.47944e+00  4.33826e-04  3.60247e+02  3.60063e+02  3.95957e+00  4.02449e+00  4.28084e-01 -9.36901e+01  8.03081e+01  8.45499e+05 -9.32981e+05  4.99534e+02  0.00000e+00 -8.69822e+04 -1.10822e+04 -9.80644e+04  4.28059e-01  1.00000e+00  9.34521e+01  0.00000e+00  2.88253e+01 
 9.62949e-03  8.47996e-03  0.00000e+00  3.47944e+00  4.01449e-04  3.60283e+02  3.60064e+02  3.83866e+00  3.89806e+00  4.34130e-01 -1.28968e+02  8.67857e+01  1.02609e+06 -1.13764e+06  5.20923e+02  0.00000e+00 -1.11030e+05 -1.62635e+04 -1.27293e+05  4.34104e-01  1.00000e+00  1.28698e+02  0.00000e+00  3.59494e+01 
 9.84019e-03  8.71849e-03  0.00000e+00  3.47944e+00  3.64986e-04  3.60337e+02  3.60065e+02  3.62286e+00  3.67531e+00  4.40496e-01 -1.89849e+02  9.54572e+01  1.29736e+06 -1.45382e+06  5.42466e+02  0.00000e+00 -1.55912e+05 -2.59632e+04 -1.81875e+05  4.40478e-01  1.00000e+00  1.89537e+02  0.00000e+00  4.65383e+01 
 1.00521e-02  8.95702e-03  0.00000e+00  3.47944e+00  3.20893e-04  3.60428e+02  3.60065e+02  3.43822e+00  3.48407e+00  4.47110e-01 -3.15231e+02  1.08575e+02  1.79319e+06 -2.00933e+06  5.79216e+02  0.00000e+00 -2.15555e+05 -4.83295e+04 -2.63884e+05  4.47097e-01  1.00000e+00  3.14853e+02  0.00000e+00  6.65990e+01 
 1.02653e-02  9.19555e-03  0.00000e+00  3.47944e+00  2.69434e-04  3.60615e+02  3.60066e+02  3.05378e+00  3.09195e+00  4.54639e-01 -6.37253e+02  1.29314e+02  2.80627e+06 -3.08618e+06  6.09540e+02  0.00000e+00 -2.79303e+05 -1.14486e+05 -3.93789e+05  4.54642e-01  1.00000e+00  6.36766e+02  0.00000e+00  1.10284e+02 
 1.04795e-02  9.43408e-03  0.00000e+00  3.47944e+00  2.10962e-04  3.61173e+02  3.60068e+02  2.54635e+00  2.57073e+00  4.64752e-01 -5.38323e+03  1.65159e+02  5.70892e+06 -5.03168e+06  6.65616e+02  1.34719e+06  2.02511e+06 -2.02980e+06 -4.69720e+03  4.64758e-01  1.00000e+00  5.38255e+03  3.46282e+03  2.78853e+02 
