# Code_Saturne plot output (1D profile)
#
# Iteration output: 4728
# Time output:      2.30002e+01
#
#COLUMN_TITLES: Distance | X | Y | Z | diameter_Field2 | temp_Field1 | temp_Field2 | Velocity_Field1[Z] | Velocity_Field2[Z] | vol_f_Field2 | mass_trans_Field1 | Xd_Field2 | BK | COAL | COMP | NUCL | W1 | MT | SMBR | ALPBB | CONDNUM | GAMA | GAMANUC | epsilon_Field1
 4.56474e-03  1.39645e-04  0.00000e+00  3.47944e+00  1.64141e-04  3.59992e+02  3.60057e+02  5.21717e+00  5.25216e+00  1.70955e-01  2.33025e+01  2.12249e+02  1.24949e+05 -7.99611e+05  1.54576e+03  0.00000e+00 -6.73117e+05  1.06591e+04 -6.62458e+05  1.70960e-01  1.00000e+00 -2.35688e+01  0.00000e+00  7.19973e-01 
 4.57812e-03  3.76525e-04  4.25872e-21  3.47944e+00  1.92332e-04  3.59993e+02  3.60057e+02  5.20605e+00  5.24498e+00  1.72437e-01  1.88486e+01  1.81138e+02  2.00182e+05 -6.15547e+05  1.32785e+03  0.00000e+00 -4.14037e+05  7.29558e+03 -4.06742e+05  1.72440e-01  1.00000e+00 -1.90660e+01  0.00000e+00  7.29882e-01 
 4.60371e-03  6.13858e-04  0.00000e+00  3.47944e+00  2.10579e-04  3.59994e+02  3.60057e+02  5.20728e+00  5.25191e+00  1.74865e-01  1.67743e+01  1.65442e+02  2.44054e+05 -5.37650e+05  1.21592e+03  0.00000e+00 -2.92380e+05  5.84883e+03 -2.86531e+05  1.74864e-01  1.00000e+00 -1.69706e+01  0.00000e+00  7.49429e-01 
 4.64138e-03  8.51483e-04  0.00000e+00  3.47944e+00  2.21893e-04  3.59995e+02  3.60057e+02  5.20996e+00  5.26116e+00  1.78219e-01  1.57335e+01  1.57007e+02  2.74063e+05 -5.06252e+05  1.14170e+03  0.00000e+00 -2.31047e+05  5.10943e+03 -2.25938e+05  1.78220e-01  1.00000e+00 -1.59216e+01  0.00000e+00  7.79257e-01 
 4.69084e-03  1.08931e-03  0.00000e+00  3.47944e+00  2.29170e-04  3.59998e+02  3.60057e+02  5.20975e+00  5.26184e+00  1.82609e-01  1.50545e+01  1.52021e+02  3.00193e+05 -4.97905e+05  1.11203e+03  0.00000e+00 -1.96600e+05  4.62167e+03 -1.91979e+05  1.82604e-01  1.00000e+00 -1.52399e+01  0.00000e+00  8.19736e-01 
 4.75174e-03  1.32727e-03  1.05001e-20  3.47944e+00  2.34135e-04  3.60000e+02  3.60057e+02  5.20453e+00  5.26142e+00  1.88299e-01  1.46497e+01  1.48797e+02  3.26444e+05 -5.03742e+05  1.07778e+03  0.00000e+00 -1.76220e+05  4.27125e+03 -1.71949e+05  1.88284e-01  1.00000e+00 -1.48371e+01  0.00000e+00  8.71441e-01 
 4.82366e-03  1.56534e-03  0.00000e+00  3.47944e+00  2.37777e-04  3.60004e+02  3.60057e+02  5.19415e+00  5.24988e+00  1.95111e-01  1.42304e+01  1.46518e+02  3.53998e+05 -5.18770e+05  1.06159e+03  0.00000e+00 -1.63710e+05  3.94519e+03 -1.59765e+05  1.95095e-01  1.00000e+00 -1.44213e+01  0.00000e+00  9.34073e-01 
 4.90611e-03  1.80349e-03  8.81027e-21  3.47944e+00  2.40725e-04  3.60008e+02  3.60057e+02  5.18566e+00  5.24138e+00  2.02704e-01  1.38107e+01  1.44724e+02  3.83789e+05 -5.39813e+05  1.04606e+03  0.00000e+00 -1.54978e+05  3.64278e+03 -1.51336e+05  2.02703e-01  1.00000e+00 -1.40069e+01  0.00000e+00  1.00911e+00 
 4.99859e-03  2.04170e-03  0.00000e+00  3.47944e+00  2.43380e-04  3.60012e+02  3.60057e+02  5.17845e+00  5.23175e+00  2.10892e-01  1.32941e+01  1.43145e+02  4.16610e+05 -5.65138e+05  1.03882e+03  0.00000e+00 -1.47489e+05  3.33656e+03 -1.44152e+05  2.10909e-01  1.00000e+00 -1.34961e+01  0.00000e+00  1.09932e+00 
 5.10055e-03  2.27996e-03  7.58893e-21  3.47944e+00  2.46027e-04  3.60017e+02  3.60057e+02  5.17186e+00  5.22632e+00  2.19868e-01  1.27318e+01  1.41605e+02  4.52740e+05 -5.94364e+05  1.02637e+03  0.00000e+00 -1.40598e+05  3.03574e+03 -1.37562e+05  2.19884e-01  1.00000e+00 -1.29410e+01  0.00000e+00  1.20792e+00 
 5.21143e-03  2.51826e-03  7.09702e-21  3.47944e+00  2.48820e-04  3.60021e+02  3.60057e+02  5.16066e+00  5.21538e+00  2.29667e-01  1.20549e+01  1.40015e+02  4.91374e+05 -6.26833e+05  1.01283e+03  0.00000e+00 -1.34447e+05  2.72511e+03 -1.31722e+05  2.29673e-01  1.00000e+00 -1.22717e+01  0.00000e+00  1.33611e+00 
 5.33068e-03  2.75659e-03  1.33300e-20  3.47944e+00  2.51855e-04  3.60026e+02  3.60057e+02  5.14651e+00  5.20125e+00  2.40117e-01  1.12587e+01  1.38328e+02  5.31338e+05 -6.61321e+05  9.98251e+02  0.00000e+00 -1.28985e+05  2.40972e+03 -1.26575e+05  2.40115e-01  1.00000e+00 -1.14831e+01  0.00000e+00  1.48429e+00 
 5.45775e-03  2.99495e-03  1.25651e-20  3.47944e+00  2.55181e-04  3.60032e+02  3.60057e+02  5.12964e+00  5.18401e+00  2.51013e-01  1.03406e+01  1.36525e+02  5.71727e+05 -6.96697e+05  9.83273e+02  0.00000e+00 -1.23987e+05  2.09470e+03 -1.21892e+05  2.51009e-01  1.00000e+00 -1.05726e+01  0.00000e+00  1.65370e+00 
 5.59212e-03  3.23333e-03  0.00000e+00  3.47944e+00  2.58797e-04  3.60037e+02  3.60057e+02  5.11106e+00  5.16496e+00  2.62113e-01  9.31301e+00  1.34618e+02  6.11961e+05 -7.31953e+05  9.67662e+02  0.00000e+00 -1.19025e+05  1.78705e+03 -1.17238e+05  2.62110e-01  1.00000e+00 -9.55213e+00  0.00000e+00  1.84643e+00 
 5.73326e-03  3.47172e-03  0.00000e+00  3.47944e+00  2.62693e-04  3.60042e+02  3.60057e+02  5.09049e+00  5.14416e+00  2.73344e-01  8.19780e+00  1.32621e+02  6.51504e+05 -7.66611e+05  9.50864e+02  0.00000e+00 -1.14157e+05  1.49230e+03 -1.12665e+05  2.73342e-01  1.00000e+00 -8.44367e+00  0.00000e+00  2.06496e+00 
 5.88069e-03  3.71014e-03 -5.35987e-21  3.47944e+00  2.66814e-04  3.60047e+02  3.60057e+02  5.06725e+00  5.12076e+00  2.84534e-01  7.01492e+00  1.30573e+02  6.89981e+05 -8.00110e+05  9.33021e+02  0.00000e+00 -1.09195e+05  1.21478e+03 -1.07980e+05  2.84531e-01  1.00000e+00 -7.26701e+00  0.00000e+00  2.31155e+00 
 6.03395e-03  3.94857e-03  5.10973e-21  3.47944e+00  2.71088e-04  3.60052e+02  3.60057e+02  5.04119e+00  5.09446e+00  2.95656e-01  5.78972e+00  1.28515e+02  7.26800e+05 -8.32305e+05  9.14872e+02  0.00000e+00 -1.04590e+05  9.57565e+02 -1.03633e+05  2.95652e-01  1.00000e+00 -6.04753e+00  0.00000e+00  2.58734e+00 
 6.19261e-03  4.18701e-03  0.00000e+00  3.47944e+00  2.75399e-04  3.60057e+02  3.60057e+02  5.01248e+00  5.06548e+00  3.06533e-01  4.54633e+00  1.26503e+02  7.62108e+05 -8.63067e+05  8.96579e+02  0.00000e+00 -1.00063e+05  7.22991e+02 -9.93399e+04  3.06530e-01  1.00000e+00 -4.80937e+00  0.00000e+00  2.89502e+00 
 6.35626e-03  4.42546e-03  0.00000e+00  3.47944e+00  2.79629e-04  3.60061e+02  3.60057e+02  4.98115e+00  5.03387e+00  3.17106e-01  3.30826e+00  1.24590e+02  7.95852e+05 -8.92578e+05  8.78687e+02  0.00000e+00 -9.58474e+04  5.11818e+02 -9.53356e+04  3.17106e-01  1.00000e+00 -3.57619e+00  0.00000e+00  3.23558e+00 
 6.52453e-03  4.66392e-03 -8.96437e-21  3.47944e+00  2.83628e-04  3.60065e+02  3.60057e+02  4.94719e+00  4.99960e+00  3.27266e-01  2.09498e+00  1.22834e+02  8.28737e+05 -9.21314e+05  8.61402e+02  0.00000e+00 -9.17155e+04  3.23693e+02 -9.13918e+04  3.27266e-01  1.00000e+00 -2.36756e+00  0.00000e+00  3.61264e+00 
 6.69707e-03  4.90238e-03  1.72236e-20  3.47944e+00  2.87264e-04  3.60069e+02  3.60057e+02  4.91055e+00  4.96257e+00  3.37037e-01  9.23154e-01  1.21279e+02  8.61236e+05 -9.50061e+05  8.45302e+02  0.00000e+00 -8.79794e+04  1.57345e+02 -8.78220e+04  3.37037e-01  1.00000e+00 -1.20041e+00  0.00000e+00  4.02902e+00 
 6.87356e-03  5.14086e-03  8.28595e-21  3.47944e+00  2.90390e-04  3.60073e+02  3.60058e+02  4.87118e+00  4.92269e+00  3.46408e-01 -1.94865e-01  1.19974e+02  8.94321e+05 -9.79844e+05  8.30545e+02  0.00000e+00 -8.46918e+04  1.10060e+01 -8.46808e+04  3.46406e-01  1.00000e+00 -8.72398e-02  0.00000e+00  4.48992e+00 
 7.05370e-03  5.37934e-03 -1.59677e-20  3.47944e+00  2.92889e-04  3.60076e+02  3.60058e+02  4.82905e+00  4.87997e+00  3.55393e-01 -2.83750e+00  1.18951e+02  9.28817e+05 -1.01162e+06  8.17414e+02  0.00000e+00 -8.19820e+04 -2.70686e+02 -8.22527e+04  3.55388e-01  1.00000e+00  2.22016e+00  0.00000e+00  5.00033e+00 
 7.23722e-03  5.61783e-03  0.00000e+00  3.47944e+00  2.94626e-04  3.60079e+02  3.60058e+02  4.78404e+00  4.83422e+00  3.63987e-01 -5.05913e+00  1.18250e+02  9.66022e+05 -1.04668e+06  8.05997e+02  0.00000e+00 -7.98519e+04 -5.24169e+02 -8.03761e+04  3.63982e-01  1.00000e+00  4.42931e+00  0.00000e+00  5.56897e+00 
 7.42387e-03  5.85632e-03  0.00000e+00  3.47944e+00  2.95522e-04  3.60082e+02  3.60058e+02  4.73588e+00  4.78519e+00  3.72237e-01 -7.19365e+00  1.17892e+02  1.00690e+06 -1.08622e+06  7.96473e+02  0.00000e+00 -7.85194e+04 -7.55619e+02 -7.92751e+04  3.72232e-01  1.00000e+00  6.54962e+00  0.00000e+00  6.20395e+00 
 7.61342e-03  6.09482e-03  0.00000e+00  3.47944e+00  2.95459e-04  3.60084e+02  3.60058e+02  4.68443e+00  4.73268e+00  3.80125e-01 -9.27881e+00  1.17918e+02  1.05323e+06 -1.13189e+06  7.88877e+02  0.00000e+00 -7.78689e+04 -9.73883e+02 -7.88428e+04  3.80120e-01  1.00000e+00  8.61855e+00  0.00000e+00  6.92044e+00 
 7.80566e-03  6.33332e-03  0.00000e+00  3.47944e+00  2.94402e-04  3.60087e+02  3.60058e+02  4.62915e+00  4.67618e+00  3.87738e-01 -1.13717e+01  1.18342e+02  1.10609e+06 -1.18523e+06  7.83324e+02  0.00000e+00 -7.83594e+04 -1.18878e+03 -7.95482e+04  3.87733e-01  1.00000e+00  1.06926e+01  0.00000e+00  7.73120e+00 
 8.00039e-03  6.57182e-03  0.00000e+00  3.47944e+00  2.92233e-04  3.60089e+02  3.60059e+02  4.57000e+00  4.61561e+00  3.95026e-01 -1.35401e+01  1.19221e+02  1.16822e+06 -1.24870e+06  7.79822e+02  0.00000e+00 -7.97001e+04 -1.41149e+03 -8.11116e+04  3.95020e-01  1.00000e+00  1.28390e+01  0.00000e+00  8.66403e+00 
 8.19744e-03  6.81033e-03  1.31016e-20  3.47944e+00  2.88953e-04  3.60091e+02  3.60059e+02  4.50569e+00  4.54970e+00  4.02137e-01 -1.58890e+01  1.20575e+02  1.24105e+06 -1.32470e+06  7.78489e+02  0.00000e+00 -8.28676e+04 -1.65601e+03 -8.45236e+04  4.02131e-01  1.00000e+00  1.51621e+01  0.00000e+00  9.74035e+00 
 8.39664e-03  7.04884e-03  0.00000e+00  3.47944e+00  2.84409e-04  3.60093e+02  3.60059e+02  4.43694e+00  4.47913e+00  4.08983e-01 -1.85578e+01  1.22502e+02  1.32940e+06 -1.41757e+06  7.79442e+02  0.00000e+00 -8.73841e+04 -1.94219e+03 -8.93263e+04  4.08976e-01  1.00000e+00  1.78005e+01  0.00000e+00  1.10143e+01 
 8.59784e-03  7.28736e-03  0.00000e+00  3.47944e+00  2.78611e-04  3.60095e+02  3.60060e+02  4.36016e+00  4.40034e+00  4.15718e-01 -2.17763e+01  1.25052e+02  1.43604e+06 -1.53164e+06  7.82779e+02  0.00000e+00 -9.48167e+04 -2.29922e+03 -9.71159e+04  4.15710e-01  1.00000e+00  2.09829e+01  0.00000e+00  1.25262e+01 
 8.80092e-03  7.52587e-03  0.00000e+00  3.47944e+00  2.71333e-04  3.60098e+02  3.60060e+02  4.27902e+00  4.31695e+00  4.22298e-01 -2.58951e+01  1.28407e+02  1.57017e+06 -1.67604e+06  7.89134e+02  0.00000e+00 -1.05084e+05 -2.77550e+03 -1.07860e+05  4.22291e-01  1.00000e+00  2.50581e+01  0.00000e+00  1.43892e+01 
 9.00573e-03  7.76439e-03 -1.17014e-20  3.47944e+00  2.62558e-04  3.60102e+02  3.60060e+02  4.18297e+00  4.21846e+00  4.28865e-01 -3.15427e+01  1.32700e+02  1.73892e+06 -1.86061e+06  7.97894e+02  0.00000e+00 -1.20897e+05 -3.45497e+03 -1.24352e+05  4.28856e-01  1.00000e+00  3.06529e+01  0.00000e+00  1.66993e+01 
 9.21216e-03  8.00291e-03  0.00000e+00  3.47944e+00  2.51894e-04  3.60107e+02  3.60061e+02  4.08535e+00  4.11816e+00  4.35386e-01 -3.98409e+01  1.38319e+02  1.96442e+06 -2.10771e+06  8.10775e+02  0.00000e+00 -1.42481e+05 -4.49997e+03 -1.46981e+05  4.35378e-01  1.00000e+00  3.88847e+01  0.00000e+00  1.97483e+01 
 9.42012e-03  8.24144e-03  0.00000e+00  3.47944e+00  2.39291e-04  3.60114e+02  3.60061e+02  3.95323e+00  3.98257e+00  4.42028e-01 -5.30536e+01  1.45605e+02  2.26432e+06 -2.44411e+06  8.28869e+02  0.00000e+00 -1.78959e+05 -6.24131e+03 -1.85201e+05  4.42017e-01  1.00000e+00  5.20143e+01  0.00000e+00  2.37359e+01 
 9.62949e-03  8.47996e-03  0.00000e+00  3.47944e+00  2.23989e-04  3.60126e+02  3.60062e+02  3.82826e+00  3.85462e+00  4.48782e-01 -7.61689e+01  1.55554e+02  2.70598e+06 -2.93920e+06  8.54222e+02  0.00000e+00 -2.32366e+05 -9.47192e+03 -2.41838e+05  4.48769e-01  1.00000e+00  7.50181e+01  0.00000e+00  2.95842e+01 
 9.84019e-03  8.71849e-03  0.00000e+00  3.47944e+00  2.05715e-04  3.60147e+02  3.60062e+02  3.63613e+00  3.65924e+00  4.55707e-01 -1.21904e+02  1.69374e+02  3.37759e+06 -3.70360e+06  8.84239e+02  0.00000e+00 -3.25126e+05 -1.63281e+04 -3.41454e+05  4.55689e-01  1.00000e+00  1.20602e+02  0.00000e+00  3.83789e+01 
 1.00521e-02  8.95702e-03  0.00000e+00  3.47944e+00  1.82896e-04  3.60188e+02  3.60063e+02  3.44772e+00  3.46789e+00  4.62944e-01 -2.30956e+02  1.90508e+02  4.59299e+06 -5.06507e+06  9.33959e+02  0.00000e+00 -4.71155e+05 -3.43906e+04 -5.05546e+05  4.62919e-01  1.00000e+00  2.29425e+02  0.00000e+00  5.47243e+01 
 1.02653e-02  9.19555e-03  0.00000e+00  3.47944e+00  1.55046e-04  3.60294e+02  3.60064e+02  3.09753e+00  3.11437e+00  4.70648e-01 -5.75436e+02  2.24733e+02  7.10861e+06 -7.81533e+06  9.85058e+02  0.00000e+00 -7.05735e+05 -9.97691e+04 -8.05504e+05  4.70620e-01  1.00000e+00  5.73544e+02  0.00000e+00  9.01835e+01 
 1.04795e-02  9.43408e-03  0.00000e+00  3.47944e+00  1.21201e-04  3.60706e+02  3.60065e+02  2.60894e+00  2.61909e+00  4.81959e-01 -5.92568e+03  2.87493e+02  1.46959e+07 -1.48518e+07  1.09327e+03  2.75966e+06  2.60477e+06 -2.66933e+06 -6.45522e+04  4.81945e-01  1.00000e+00  5.92315e+03  3.47601e+03  2.26700e+02 
