# Code_Saturne plot output (1D profile)
#
# Iteration output: 1971
# Time output:      2.30003e+01
#
#COLUMN_TITLES: Distance | X | Y | Z | diameter_Field2 | temp_Field1 | temp_Field2 | Velocity_Field1[Z] | Velocity_Field2[Z] | vol_f_Field2 | mass_trans_Field1 | Xd_Field2 | BK | COAL | COMP | NUCL | W1 | MT | SMBR | ALPBB | CONDNUM | GAMA | GAMANUC | epsilon_Field1
 4.56474e-03  1.39645e-04  0.00000e+00  3.47944e+00  1.42507e-05  3.59203e+02  3.60050e+02  4.20454e+00  4.20503e+00  5.17785e-03  2.45334e+02  2.44575e+03 4.06775e-147 -2.33006e+06  1.22461e+04  0.00000e+00 -2.31781e+06  7.03096e+07  6.79918e+07  5.19335e-03  1.00000e+00 -2.45324e+02  0.00000e+00  4.27963e-01 
 4.57812e-03  3.76525e-04  4.25872e-21  3.47944e+00  2.61548e-05  3.59202e+02  3.60050e+02  4.20447e+00  4.20595e+00  7.84744e-03  1.57598e+02  1.33259e+03  2.58576e-47 -1.26885e+06  6.68875e+03  0.00000e+00 -1.26217e+06  1.62779e+07  1.50158e+07  7.85117e-03  1.00000e+00 -1.57592e+02  0.00000e+00  4.31550e-01 
 4.60371e-03  6.13858e-04  0.00000e+00  3.47944e+00  3.99592e-05  3.59203e+02  3.60050e+02  4.20356e+00  4.20670e+00  9.88368e-03  1.06855e+02  8.72231e+02  6.91711e-19 -7.83260e+05  4.40493e+03  0.00000e+00 -7.78855e+05  5.73874e+06  4.95988e+06  9.88412e-03  1.00000e+00 -1.06850e+02  0.00000e+00  4.38381e-01 
 4.64138e-03  8.51483e-04  0.00000e+00  3.47944e+00  5.39798e-05  3.59206e+02  3.60050e+02  4.20202e+00  4.20742e+00  1.14772e-02  7.91298e+01  6.45679e+02  3.30783e-08 -5.49320e+05  3.26266e+03  0.00000e+00 -5.46057e+05  2.70924e+06  2.16318e+06  1.14770e-02  1.00000e+00 -7.91264e+01  0.00000e+00  4.48489e-01 
 4.69084e-03  1.08931e-03  0.00000e+00  3.47944e+00  6.73815e-05  3.59211e+02  3.60050e+02  4.19973e+00  4.20780e+00  1.30679e-02  6.42437e+01  5.17259e+02  2.89198e-03 -4.32601e+05  2.61336e+03  0.00000e+00 -4.29988e+05  1.54744e+06  1.11745e+06  1.30693e-02  1.00000e+00 -6.42409e+01  0.00000e+00  4.62059e-01 
 4.75174e-03  1.32727e-03  1.05001e-20  3.47944e+00  7.97081e-05  3.59220e+02  3.60050e+02  4.19671e+00  4.20721e+00  1.49259e-02  5.73100e+01  4.37266e+02  1.23361e+00 -3.75360e+05  2.20100e+03  0.00000e+00 -3.73158e+05  1.02165e+06  6.48493e+05  1.49321e-02  1.00000e+00 -5.73075e+01  0.00000e+00  4.79387e-01 
 4.82366e-03  1.56534e-03  0.00000e+00  3.47944e+00  9.11105e-05  3.59231e+02  3.60050e+02  4.19296e+00  4.20574e+00  1.70876e-02  5.37323e+01  3.82543e+02  4.81545e+01 -3.46277e+05  1.93659e+03  0.00000e+00 -3.44293e+05  7.32203e+05  3.87910e+05  1.70873e-02  1.00000e+00 -5.37299e+01  0.00000e+00  5.00885e-01 
 4.90611e-03  1.80349e-03  8.81027e-21  3.47944e+00  1.01951e-04  3.59245e+02  3.60050e+02  4.18845e+00  4.20341e+00  1.95747e-02  5.19403e+01  3.41869e+02  5.52282e+02 -3.32344e+05  1.73098e+03  0.00000e+00 -3.30061e+05  5.52260e+05  2.22199e+05  1.95716e-02  1.00000e+00 -5.19380e+01  0.00000e+00  5.27111e-01 
 4.99859e-03  2.04170e-03  0.00000e+00  3.47944e+00  1.12388e-04  3.59262e+02  3.60050e+02  4.18315e+00  4.20019e+00  2.24350e-02  5.12481e+01  3.10119e+02  3.09323e+03 -3.28098e+05  1.57017e+03  0.00000e+00 -3.23435e+05  4.31304e+05  1.07869e+05  2.24305e-02  1.00000e+00 -5.12457e+01  0.00000e+00  5.58727e-01 
 5.10055e-03  2.27996e-03  7.58893e-21  3.47944e+00  1.22423e-04  3.59282e+02  3.60050e+02  4.17702e+00  4.19603e+00  2.57221e-02  5.13626e+01  2.84700e+02  1.08687e+04 -3.31415e+05  1.44106e+03  0.00000e+00 -3.19105e+05  3.46136e+05  2.70313e+04  2.57167e-02  1.00000e+00 -5.13602e+01  0.00000e+00  5.96518e-01 
 5.21143e-03  2.51826e-03  7.09702e-21  3.47944e+00  1.31939e-04  3.59304e+02  3.60050e+02  4.16999e+00  4.19083e+00  2.94955e-02  5.21658e+01  2.64164e+02  2.76496e+04 -3.41701e+05  1.33638e+03  0.00000e+00 -3.12715e+05  2.84467e+05 -2.82481e+04  2.94893e-02  1.00000e+00 -5.21633e+01  0.00000e+00  6.41415e-01 
 5.33068e-03  2.75659e-03  1.33300e-20  3.47944e+00  1.40808e-04  3.59329e+02  3.60050e+02  4.16202e+00  4.18451e+00  3.38208e-02  5.35988e+01  2.47527e+02  5.59446e+04 -3.59007e+05  1.25114e+03  0.00000e+00 -3.01811e+05  2.38850e+05 -6.29610e+04  3.38140e-02  1.00000e+00 -5.35961e+01  0.00000e+00  6.94520e-01 
 5.45775e-03  2.99495e-03  1.25651e-20  3.47944e+00  1.48967e-04  3.59356e+02  3.60050e+02  4.15299e+00  4.17694e+00  3.87705e-02  5.56019e+01  2.33970e+02  9.62271e+04 -3.83544e+05  1.18125e+03  0.00000e+00 -2.86136e+05  2.04307e+05 -8.18289e+04  3.87629e-02  1.00000e+00 -5.55990e+01  0.00000e+00  7.57128e-01 
 5.59212e-03  3.23333e-03  0.00000e+00  3.47944e+00  1.56468e-04  3.59384e+02  3.60050e+02  4.14283e+00  4.16807e+00  4.44203e-02  5.80827e+01  2.22753e+02  1.47582e+05 -4.15418e+05  1.12294e+03  0.00000e+00 -2.66713e+05  1.77348e+05 -8.93651e+04  4.44120e-02  1.00000e+00 -5.80795e+01  0.00000e+00  8.30767e-01 
 5.73326e-03  3.47172e-03  0.00000e+00  3.47944e+00  1.63471e-04  3.59415e+02  3.60050e+02  4.13139e+00  4.15778e+00  5.08499e-02  6.09118e+01  2.13211e+02  2.08624e+05 -4.54510e+05  1.07287e+03  0.00000e+00 -2.44813e+05  1.55510e+05 -8.93026e+04  5.08409e-02  1.00000e+00 -6.09084e+01  0.00000e+00  9.17212e-01 
 5.88069e-03  3.71014e-03 -5.35987e-21  3.47944e+00  1.70207e-04  3.59447e+02  3.60050e+02  4.11856e+00  4.14602e+00  5.81345e-02  6.39182e+01  2.04773e+02  2.77902e+05 -5.00348e+05  1.02813e+03  0.00000e+00 -2.21418e+05  1.37088e+05 -8.43300e+04  5.81247e-02  1.00000e+00 -6.39144e+01  0.00000e+00  1.01855e+00 
 6.03395e-03  3.94857e-03  5.10973e-21  3.47944e+00  1.76957e-04  3.59481e+02  3.60050e+02  4.10416e+00  4.13266e+00  6.63505e-02  6.65550e+01  1.96962e+02  3.53771e+05 -5.52072e+05  9.86341e+02  0.00000e+00 -1.97315e+05  1.20297e+05 -7.70179e+04  6.63400e-02  1.00000e+00 -6.65509e+01  0.00000e+00  1.13716e+00 
 6.19261e-03  4.18701e-03  0.00000e+00  3.47944e+00  1.84005e-04  3.59515e+02  3.60050e+02  4.08799e+00  4.11757e+00  7.55446e-02  6.83934e+01  1.89418e+02  4.34090e+05 -6.08209e+05  9.45685e+02  0.00000e+00 -1.73173e+05  1.04416e+05 -6.87573e+04  7.55332e-02  1.00000e+00 -6.83889e+01  0.00000e+00  1.27584e+00 
 6.35626e-03  4.42546e-03  0.00000e+00  3.47944e+00  1.91612e-04  3.59550e+02  3.60050e+02  4.06984e+00  4.10058e+00  8.57630e-02  6.95894e+01  1.81899e+02  5.15968e+05 -6.67023e+05  9.04944e+02  0.00000e+00 -1.50150e+05  8.98687e+04 -6.02817e+04  8.57506e-02  1.00000e+00 -6.95845e+01  0.00000e+00  1.43771e+00 
 6.52453e-03  4.66392e-03 -8.96437e-21  3.47944e+00  2.00026e-04  3.59585e+02  3.60050e+02  4.04944e+00  4.08135e+00  9.69813e-02  6.99085e+01  1.74247e+02  5.96044e+05 -7.25931e+05  8.63347e+02  0.00000e+00 -1.29023e+05  7.64794e+04 -5.25437e+04  9.69673e-02  1.00000e+00 -6.99032e+01  0.00000e+00  1.62637e+00 
 6.69707e-03  4.90238e-03  1.72236e-20  3.47944e+00  2.09475e-04  3.59621e+02  3.60050e+02  4.02649e+00  4.05968e+00  1.09197e-01  6.92095e+01  1.66388e+02  6.70578e+05 -7.82394e+05  8.20539e+02  0.00000e+00 -1.10995e+05  6.42116e+04 -4.67838e+04  1.09182e-01  1.00000e+00 -6.92039e+01  0.00000e+00  1.84564e+00 
 6.87356e-03  5.14086e-03  8.28595e-21  3.47944e+00  2.20108e-04  3.59656e+02  3.60050e+02  4.00069e+00  4.03529e+00  1.22256e-01  6.73744e+01  1.58350e+02  7.36267e+05 -8.33235e+05  7.76694e+02  0.00000e+00 -9.61907e+04  5.31343e+04 -4.30564e+04  1.22240e-01  1.00000e+00 -6.73684e+01  0.00000e+00  2.10003e+00 
 7.05370e-03  5.37934e-03 -1.59677e-20  3.47944e+00  2.31992e-04  3.59690e+02  3.60050e+02  3.97167e+00  4.00782e+00  1.36091e-01  6.44502e+01  1.50239e+02  7.90330e+05 -8.76561e+05  7.32372e+02  0.00000e+00 -8.54995e+04  4.33216e+04 -4.21779e+04  1.36075e-01  1.00000e+00 -6.44439e+01  0.00000e+00  2.39378e+00 
 7.23722e-03  5.61783e-03  0.00000e+00  3.47944e+00  2.45022e-04  3.59725e+02  3.60050e+02  3.93916e+00  3.97698e+00  1.50377e-01  6.05070e+01  1.42249e+02  8.31851e+05 -9.10385e+05  6.88499e+02  0.00000e+00 -7.78456e+04  3.48497e+04 -4.29959e+04  1.50360e-01  1.00000e+00 -6.05006e+01  0.00000e+00  2.73246e+00 
 7.42387e-03  5.85632e-03  0.00000e+00  3.47944e+00  2.58959e-04  3.59759e+02  3.60050e+02  3.90285e+00  3.94243e+00  1.65035e-01  5.57887e+01  1.34594e+02  8.60874e+05 -9.35436e+05  6.46209e+02  0.00000e+00 -7.39153e+04  2.77022e+04 -4.62130e+04  1.65018e-01  1.00000e+00 -5.57821e+01  0.00000e+00  3.12053e+00 
 7.61342e-03  6.09482e-03  0.00000e+00  3.47944e+00  2.73304e-04  3.59792e+02  3.60051e+02  3.86267e+00  3.90403e+00  1.79598e-01  5.04853e+01  1.27530e+02  8.80234e+05 -9.52384e+05  6.06628e+02  0.00000e+00 -7.15436e+04  2.18267e+04 -4.97169e+04  1.79580e-01  1.00000e+00 -5.04786e+01  0.00000e+00  3.56612e+00 
 7.80566e-03  6.33332e-03  0.00000e+00  3.47944e+00  2.87490e-04  3.59825e+02  3.60051e+02  3.81827e+00  3.86134e+00  1.94132e-01  4.48753e+01  1.21237e+02  8.92561e+05 -9.65097e+05  5.70750e+02  0.00000e+00 -7.19656e+04  1.70627e+04 -5.49029e+04  1.94115e-01  1.00000e+00 -4.48685e+01  0.00000e+00  4.07504e+00 
 8.00039e-03  6.57182e-03  0.00000e+00  3.47944e+00  3.00689e-04  3.59859e+02  3.60051e+02  3.76986e+00  3.81445e+00  2.08093e-01  3.90811e+01  1.15916e+02  9.03382e+05 -9.76291e+05  5.39250e+02  0.00000e+00 -7.23697e+04  1.32539e+04 -5.91158e+04  2.08076e-01  1.00000e+00 -3.90742e+01  0.00000e+00  4.66289e+00 
 8.19744e-03  6.81033e-03  1.31016e-20  3.47944e+00  3.12289e-04  3.59892e+02  3.60051e+02  3.71665e+00  3.76247e+00  2.21843e-01  3.32218e+01  1.11610e+02  9.15464e+05 -9.91270e+05  5.12410e+02  0.00000e+00 -7.52936e+04  1.01755e+04 -6.51181e+04  2.21826e-01  1.00000e+00 -3.32148e+01  0.00000e+00  5.34023e+00 
 8.39664e-03  7.04884e-03  0.00000e+00  3.47944e+00  3.21451e-04  3.59925e+02  3.60051e+02  3.65905e+00  3.70572e+00  2.34799e-01  2.72355e+01  1.08430e+02  9.35119e+05 -1.01327e+06  4.90305e+02  0.00000e+00 -7.76625e+04  7.65665e+03 -7.00058e+04  2.34782e-01  1.00000e+00 -2.72284e+01  0.00000e+00  6.14058e+00 
 8.59784e-03  7.28736e-03  0.00000e+00  3.47944e+00  3.27895e-04  3.59959e+02  3.60051e+02  3.59484e+00  3.64187e+00  2.47604e-01  2.10034e+01  1.06299e+02  9.63528e+05 -1.04731e+06  4.72590e+02  0.00000e+00 -8.33080e+04  5.48870e+03 -7.78193e+04  2.47589e-01  1.00000e+00 -2.09961e+01  0.00000e+00  7.08461e+00 
 8.80092e-03  7.52587e-03  0.00000e+00  3.47944e+00  3.30963e-04  3.59995e+02  3.60052e+02  3.52581e+00  3.57266e+00  2.59638e-01  1.42603e+01  1.05314e+02  1.00829e+06 -1.09756e+06  4.59042e+02  0.00000e+00 -8.88063e+04  3.52025e+03 -8.52861e+04  2.59624e-01  1.00000e+00 -1.42527e+01  0.00000e+00  8.24700e+00 
 9.00573e-03  7.76439e-03 -1.17014e-20  3.47944e+00  3.30757e-04  3.60032e+02  3.60052e+02  3.44545e+00  3.49160e+00  2.71645e-01  6.59781e+00  1.05381e+02  1.07008e+06 -1.16942e+06  4.49082e+02  0.00000e+00 -9.88932e+04  1.55662e+03 -9.73365e+04  2.71634e-01  1.00000e+00 -6.58987e+00  0.00000e+00  9.67268e+00 
 9.21216e-03  8.00291e-03  0.00000e+00  3.47944e+00  3.26704e-04  3.60071e+02  3.60052e+02  3.36081e+00  3.40569e+00  2.83059e-01 -5.92483e+00  1.06689e+02  1.16181e+06 -1.27178e+06  4.42618e+02  0.00000e+00 -1.09527e+05 -1.36378e+03 -1.10890e+05  2.83050e-01  1.00000e+00  5.94245e+00  0.00000e+00  1.15496e+01 
 9.42012e-03  8.24144e-03  0.00000e+00  3.47944e+00  3.19087e-04  3.60116e+02  3.60052e+02  3.25351e+00  3.29669e+00  2.94668e-01 -3.27027e+01  1.09236e+02  1.28782e+06 -1.41529e+06  4.38812e+02  0.00000e+00 -1.27035e+05 -7.38580e+03 -1.34420e+05  2.94662e-01  1.00000e+00  3.27215e+01  0.00000e+00  1.40133e+01 
 9.62949e-03  8.47996e-03  0.00000e+00  3.47944e+00  3.06743e-04  3.60169e+02  3.60053e+02  3.14305e+00  3.18383e+00  3.05993e-01 -7.10027e+01  1.13633e+02  1.48198e+06 -1.62920e+06  4.39177e+02  0.00000e+00 -1.46786e+05 -1.60589e+04 -1.62845e+05  3.05991e-01  1.00000e+00  7.10232e+01  0.00000e+00  1.76435e+01 
 9.84019e-03  8.71849e-03  0.00000e+00  3.47944e+00  2.89877e-04  3.60239e+02  3.60053e+02  2.98393e+00  3.02216e+00  3.17597e-01 -1.32554e+02  1.20245e+02  1.77357e+06 -1.94992e+06  4.41236e+02  0.00000e+00 -1.75904e+05 -3.05616e+04 -2.06465e+05  3.17596e-01  1.00000e+00  1.32576e+02  0.00000e+00  2.30863e+01 
 1.00521e-02  8.95702e-03  0.00000e+00  3.47944e+00  2.67316e-04  3.60346e+02  3.60054e+02  2.81436e+00  2.84989e+00  3.29169e-01 -2.48851e+02  1.30395e+02  2.28416e+06 -2.46642e+06  4.47756e+02  0.00000e+00 -1.81806e+05 -6.00254e+04 -2.41832e+05  3.29170e-01  1.00000e+00  2.48877e+02  0.00000e+00  3.31529e+01 
 1.02653e-02  9.19555e-03  0.00000e+00  3.47944e+00  2.41513e-04  3.60548e+02  3.60054e+02  2.52406e+00  2.55591e+00  3.42484e-01 -5.15090e+02  1.44328e+02  3.20713e+06 -3.25055e+06  4.40774e+02  0.00000e+00 -4.29780e+04 -1.32166e+05 -1.75143e+05  3.42487e-01  1.00000e+00  5.15120e+02  0.00000e+00  5.51740e+01 
 1.04795e-02  9.43408e-03  0.00000e+00  3.47944e+00  2.24098e-04  3.61104e+02  3.60055e+02  2.08958e+00  2.11255e+00  3.56538e-01 -4.47384e+03  1.55546e+02  5.07724e+06 -3.49849e+06  4.08204e+02  5.30715e+05  2.10987e+06 -2.11231e+06 -2.44099e+03  3.56544e-01  1.00000e+00  4.47388e+03  3.17727e+03  1.40547e+02 
