# Code_Saturne plot output (1D profile)
#
# Iteration output: 1977
# Time output:      2.30021e+01
#
#COLUMN_TITLES: Distance | X | Y | Z | diameter_Field2 | temp_Field1 | temp_Field2 | Velocity_Field1[Z] | Velocity_Field2[Z] | vol_f_Field2 | mass_trans_Field1 | Xd_Field2 | BK | COAL | COMP | NUCL | W1 | MT | SMBR | ALPBB | CONDNUM | GAMA | GAMANUC | epsilon_Field1
 4.56474e-03  1.39645e-04  0.00000e+00  3.47944e+00  1.38380e-05  3.56731e+02  3.60046e+02  3.78284e+00  3.78308e+00  2.77164e-10  3.98873e-05  2.51948e+03 7.14899e-207 -1.82463e-01  6.23347e+03  0.00000e+00  6.23328e+03  2.69272e+04  3.31605e+04  4.60014e-10  4.60014e-04 -3.99009e-05  0.00000e+00  2.51412e-01 
 4.57812e-03  3.76525e-04  4.25872e-21  3.47944e+00  1.37176e-05  3.56738e+02  3.60046e+02  3.78228e+00  3.78254e+00  8.57066e-10  1.17659e-04  2.54160e+03 1.70596e-205 -5.34883e-01  6.65744e+03  0.00000e+00  6.65690e+03  7.94298e+04  8.60867e+04  1.34430e-09  1.34430e-03 -1.17701e-04  0.00000e+00  2.53833e-01 
 4.60371e-03  6.13858e-04  0.00000e+00  3.47944e+00  1.35969e-05  3.56752e+02  3.60045e+02  3.78070e+00  3.78098e+00  3.95608e-09  4.92256e-04  2.56414e+03 7.48143e-203 -2.31171e+00  7.43329e+03  0.00000e+00  7.43097e+03  3.32329e+05  3.39760e+05  5.77399e-09  5.77399e-03 -4.92434e-04  0.00000e+00  2.58623e-01 
 4.64138e-03  8.51483e-04  0.00000e+00  3.47944e+00  1.34825e-05  3.56772e+02  3.60044e+02  3.77838e+00  3.77866e+00  2.03638e-08  2.37731e-03  2.58585e+03 7.71600e-199 -1.12221e+01  6.66291e+03  0.00000e+00  6.65169e+03  1.60422e+06  1.61087e+06  2.77981e-08  2.77981e-02 -2.37818e-03  0.00000e+00  2.65852e-01 
 4.69084e-03  1.08931e-03  0.00000e+00  3.47944e+00  1.34268e-05  3.56799e+02  3.60043e+02  3.77527e+00  3.77555e+00  1.09186e-07  1.18555e-02  2.59653e+03 1.17177e-192 -5.64333e+01  6.28059e+03  0.00000e+00  6.22415e+03  7.97096e+06  7.97718e+06  1.38994e-07  1.38994e-01 -1.18599e-02  0.00000e+00  2.75627e-01 
 4.75174e-03  1.32727e-03  1.05001e-20  3.47944e+00  1.36757e-05  3.56833e+02  3.60043e+02  3.77139e+00  3.77168e+00  5.79847e-07  6.06274e-02  2.54928e+03 5.02962e-180 -2.75544e+02  6.10117e+03  0.00000e+00  5.82563e+03  3.99151e+07  3.99209e+07  6.92935e-07  6.92935e-01 -6.06499e-02  0.00000e+00  2.88082e-01 
 4.82366e-03  1.56534e-03  0.00000e+00  3.47944e+00  1.56571e-05  3.56873e+02  3.60043e+02  3.76673e+00  3.76709e+00  2.73330e-06  2.62116e-01  2.22666e+03 5.73399e-142 -1.03896e+03  5.81966e+03  0.00000e+00  4.78070e+03  4.95502e+07  4.95550e+07  3.10905e-06  1.00000e+00 -2.62215e-01  0.00000e+00  3.03386e-01 
 4.90611e-03  1.80349e-03  8.81027e-21  3.47944e+00  1.96197e-05  3.56920e+02  3.60043e+02  3.76127e+00  3.76180e+00  1.02213e-05  9.35055e-01  1.77694e+03  9.85468e-95 -2.71188e+03  5.00515e+03  0.00000e+00  2.29327e+03  4.03017e+07  4.03040e+07  1.11584e-05  1.00000e+00 -9.35412e-01  0.00000e+00  3.21743e-01 
 4.99859e-03  2.04170e-03  0.00000e+00  3.47944e+00  2.44551e-05  3.56974e+02  3.60043e+02  3.75500e+00  3.75577e+00  3.21441e-05  2.80318e+00  1.42560e+03  8.83694e-62 -5.92568e+03  4.25757e+03  0.00000e+00 -1.66811e+03  3.27671e+07  3.27654e+07  3.35969e-05  1.00000e+00 -2.80427e+00  0.00000e+00  3.43386e-01 
 5.10055e-03  2.27996e-03  7.58893e-21  3.47944e+00  3.01333e-05  3.57034e+02  3.60043e+02  3.74789e+00  3.74901e+00  8.64633e-05  5.96170e+00  1.15697e+03  1.45936e-39 -1.11970e+04  3.84431e+03  0.00000e+00 -7.35271e+03  2.21415e+07  2.21341e+07  8.67299e-05  1.00000e+00 -5.96406e+00  0.00000e+00  3.68582e-01 
 5.21143e-03  2.51826e-03  7.09702e-21  3.47944e+00  3.60359e-05  3.57099e+02  3.60043e+02  3.73992e+00  3.74151e+00  1.97732e-04  1.02726e+01  9.67457e+02  1.78223e-25 -1.93043e+04  3.41236e+03  0.00000e+00 -1.58919e+04  1.40542e+07  1.40383e+07  1.97121e-04  1.00000e+00 -1.02768e+01  0.00000e+00  3.97654e-01 
 5.33068e-03  2.75659e-03  1.33300e-20  3.47944e+00  4.20854e-05  3.57171e+02  3.60043e+02  3.73105e+00  3.73324e+00  3.75769e-04  1.50515e+01  8.28392e+02  1.94550e-16 -2.89354e+04  2.95089e+03  0.00000e+00 -2.59845e+04  9.27396e+06  9.24797e+06  3.74743e-04  1.00000e+00 -1.50578e+01  0.00000e+00  4.30959e-01 
 5.45775e-03  2.99495e-03  1.25651e-20  3.47944e+00  4.81493e-05  3.57248e+02  3.60043e+02  3.72124e+00  3.72413e+00  6.23478e-04  1.98150e+01  7.24065e+02  1.79732e-10 -3.92350e+04  2.58998e+03  0.00000e+00 -3.66450e+04  6.42970e+06  6.39306e+06  6.21903e-04  1.00000e+00 -1.98235e+01  0.00000e+00  4.68907e-01 
 5.59212e-03  3.23333e-03  0.00000e+00  3.47944e+00  5.41106e-05  3.57334e+02  3.60043e+02  3.71044e+00  3.71423e+00  9.59277e-04  2.43594e+01  6.44296e+02  2.09144e-06 -5.08915e+04  2.30461e+03  0.00000e+00 -4.85869e+04  4.56931e+06  4.52072e+06  9.57156e-04  1.00000e+00 -2.43702e+01  0.00000e+00  5.11997e-01 
 5.73326e-03  3.47172e-03  0.00000e+00  3.47944e+00  5.98785e-05  3.57428e+02  3.60043e+02  3.69862e+00  3.70337e+00  1.43158e-03  2.96033e+01  5.82234e+02  1.48695e-03 -6.57796e+04  2.07922e+03  0.00000e+00 -6.37004e+04  3.36083e+06  3.29713e+06  1.42894e-03  1.00000e+00 -2.96168e+01  0.00000e+00  5.60846e-01 
 5.88069e-03  3.71014e-03 -5.35987e-21  3.47944e+00  6.55144e-05  3.57525e+02  3.60043e+02  3.68570e+00  3.69140e+00  2.09565e-03  3.60305e+01  5.32147e+02  1.79038e-01 -8.50807e+04  1.89783e+03  0.00000e+00 -8.31827e+04  2.55309e+06  2.46991e+06  2.09235e-03  1.00000e+00 -3.60475e+01  0.00000e+00  6.16149e-01 
 6.03395e-03  3.94857e-03  5.10973e-21  3.47944e+00  7.11541e-05  3.57625e+02  3.60043e+02  3.67164e+00  3.67832e+00  3.00394e-03  4.34330e+01  4.89969e+02  6.74566e+00 -1.09180e+05  1.74437e+03  0.00000e+00 -1.07429e+05  1.97647e+06  1.86904e+06  2.99976e-03  1.00000e+00 -4.34544e+01  0.00000e+00  6.78729e-01 
 6.19261e-03  4.18701e-03  0.00000e+00  3.47944e+00  7.68201e-05  3.57731e+02  3.60043e+02  3.65638e+00  3.66402e+00  4.22101e-03  5.18493e+01  4.53832e+02  1.10089e+02 -1.38822e+05  1.61209e+03  0.00000e+00 -1.37100e+05  1.55509e+06  1.41799e+06  4.21564e-03  1.00000e+00 -5.18760e+01  0.00000e+00  7.49598e-01 
 6.35626e-03  4.42546e-03  0.00000e+00  3.47944e+00  8.24823e-05  3.57840e+02  3.60043e+02  3.63984e+00  3.64843e+00  5.82446e-03  6.13488e+01  4.22677e+02  9.57873e+02 -1.75070e+05  1.49724e+03  0.00000e+00 -1.72615e+05  1.24180e+06  1.06918e+06  5.81759e-03  1.00000e+00 -6.13819e+01  0.00000e+00  8.29961e-01 
 6.52453e-03  4.66392e-03 -8.96437e-21  3.47944e+00  8.80686e-05  3.57954e+02  3.60043e+02  3.62195e+00  3.63144e+00  7.90692e-03  7.20359e+01  3.95867e+02  5.13838e+03 -2.19423e+05  1.39762e+03  0.00000e+00 -2.12887e+05  1.00589e+06  7.93006e+05  7.89815e-03  1.00000e+00 -7.20768e+01  0.00000e+00  9.21257e-01 
 6.69707e-03  4.90238e-03  1.72236e-20  3.47944e+00  9.34694e-05  3.58072e+02  3.60043e+02  3.60261e+00  3.61294e+00  1.05776e-02  8.40561e+01  3.72993e+02  1.89320e+04 -2.73987e+05  1.31176e+03  0.00000e+00 -2.53744e+05  8.26644e+05  5.72900e+05  1.05666e-02  1.00000e+00 -8.41066e+01  0.00000e+00  1.02522e+00 
 6.87356e-03  5.14086e-03  8.28595e-21  3.47944e+00  9.85558e-05  3.58193e+02  3.60043e+02  3.58172e+00  3.59279e+00  1.39642e-02  9.75796e+01  3.53744e+02  5.21333e+04 -3.41647e+05  1.23852e+03  0.00000e+00 -2.88275e+05  6.89369e+05  4.01094e+05  1.39503e-02  1.00000e+00 -9.76420e+01  0.00000e+00  1.14392e+00 
 7.05370e-03  5.37934e-03 -1.59677e-20  3.47944e+00  1.03220e-04  3.58317e+02  3.60044e+02  3.55913e+00  3.57086e+00  1.82146e-02  1.12767e+02  3.37759e+02  1.15031e+05 -4.26156e+05  1.17654e+03  0.00000e+00 -3.09948e+05  5.83145e+05  2.73197e+05  1.81973e-02  1.00000e+00 -1.12844e+02  0.00000e+00  1.28011e+00 
 7.23722e-03  5.61783e-03  0.00000e+00  3.47944e+00  1.07420e-04  3.58443e+02  3.60044e+02  3.53469e+00  3.54696e+00  2.34978e-02  1.29667e+02  3.24554e+02  2.15349e+05 -5.32020e+05  1.12402e+03  0.00000e+00 -3.15547e+05  4.99447e+05  1.83900e+05  2.34766e-02  1.00000e+00 -1.29762e+02  0.00000e+00  1.43744e+00 
 7.42387e-03  5.85632e-03  0.00000e+00  3.47944e+00  1.11194e-04  3.58570e+02  3.60044e+02  3.50818e+00  3.52092e+00  3.00064e-02  1.48153e+02  3.13540e+02  3.57735e+05 -6.64295e+05  1.07880e+03  0.00000e+00 -3.05481e+05  4.31705e+05  1.26223e+05  2.99808e-02  1.00000e+00 -1.48271e+02  0.00000e+00  1.62063e+00 
 7.61342e-03  6.09482e-03  0.00000e+00  3.47944e+00  1.14650e-04  3.58698e+02  3.60044e+02  3.47934e+00  3.49247e+00  3.79472e-02  1.67805e+02  3.04088e+02  5.45016e+05 -8.28103e+05  1.03858e+03  0.00000e+00 -2.82048e+05  3.74983e+05  9.29357e+04  3.79175e-02  1.00000e+00 -1.67950e+02  0.00000e+00  1.83574e+00 
 7.80566e-03  6.33332e-03  0.00000e+00  3.47944e+00  1.17945e-04  3.58825e+02  3.60044e+02  3.44781e+00  3.46130e+00  4.75481e-02  1.87911e+02  2.95594e+02  7.78979e+05 -1.02833e+06  1.00119e+03  0.00000e+00 -2.48354e+05  3.25777e+05  7.74237e+04  4.75124e-02  1.00000e+00 -1.88090e+02  0.00000e+00  2.09051e+00 
 8.00039e-03  6.57182e-03  0.00000e+00  3.47944e+00  1.21256e-04  3.58950e+02  3.60044e+02  3.41311e+00  3.42698e+00  5.89982e-02  2.07288e+02  2.87523e+02  1.06046e+06 -1.26810e+06  9.64654e+02  0.00000e+00 -2.06681e+05  2.81736e+05  7.50557e+04  5.89555e-02  1.00000e+00 -2.07507e+02  0.00000e+00  2.39545e+00 
 8.19744e-03  6.81033e-03  1.31016e-20  3.47944e+00  1.24780e-04  3.59073e+02  3.60044e+02  3.37465e+00  3.38896e+00  7.25192e-02  2.21568e+02  2.79402e+02  1.38723e+06 -1.54928e+06  9.27322e+02  0.00000e+00 -1.61123e+05  2.38100e+05  7.69770e+04  7.24678e-02  1.00000e+00 -2.21830e+02  0.00000e+00  2.76350e+00 
 8.39664e-03  7.04884e-03  0.00000e+00  3.47944e+00  1.28670e-04  3.59192e+02  3.60044e+02  3.33153e+00  3.34626e+00  8.81653e-02  2.29740e+02  2.70957e+02  1.75286e+06 -1.86927e+06  8.88055e+02  0.00000e+00 -1.15527e+05  1.96944e+05  8.14169e+04  8.81086e-02  1.00000e+00 -2.30047e+02  0.00000e+00  3.21255e+00 
 8.59784e-03  7.28736e-03  0.00000e+00  3.47944e+00  1.33058e-04  3.59307e+02  3.60044e+02  3.28284e+00  3.29769e+00  1.05990e-01  2.31366e+02  2.62022e+02  2.14514e+06 -2.22347e+06  8.46292e+02  0.00000e+00 -7.74851e+04  1.59562e+05  8.20773e+04  1.05927e-01  1.00000e+00 -2.31721e+02  0.00000e+00  3.76530e+00 
 8.80092e-03  7.52587e-03  0.00000e+00  3.47944e+00  1.38008e-04  3.59417e+02  3.60044e+02  3.22709e+00  3.24221e+00  1.25785e-01  2.25227e+02  2.52624e+02  2.55018e+06 -2.60271e+06  8.01886e+02  0.00000e+00 -5.17256e+04  1.26209e+05  7.44831e+04  1.25719e-01  1.00000e+00 -2.25629e+02  0.00000e+00  4.45496e+00 
 9.00573e-03  7.76439e-03 -1.17014e-20  3.47944e+00  1.43447e-04  3.59522e+02  3.60044e+02  3.16335e+00  3.17869e+00  1.47222e-01  2.10910e+02  2.43046e+02  2.95333e+06 -2.99904e+06  7.55800e+02  0.00000e+00 -4.49485e+04  9.71705e+04  5.22220e+04  1.47157e-01  1.00000e+00 -2.11358e+02  0.00000e+00  5.32383e+00 
 9.21216e-03  8.00291e-03  0.00000e+00  3.47944e+00  1.49016e-04  3.59622e+02  3.60045e+02  3.08883e+00  3.10435e+00  1.69719e-01  1.88824e+02  2.33964e+02  3.35396e+06 -3.41439e+06  7.09872e+02  0.00000e+00 -5.97217e+04  7.26663e+04  1.29446e+04  1.69667e-01  1.00000e+00 -1.89315e+02  0.00000e+00  6.44319e+00 
 9.42012e-03  8.24144e-03  0.00000e+00  3.47944e+00  1.54051e-04  3.59719e+02  3.60045e+02  3.00366e+00  3.01923e+00  1.92739e-01  1.59799e+02  2.26318e+02  3.77204e+06 -3.87278e+06  6.66551e+02  0.00000e+00 -1.00076e+05  5.24107e+04 -4.76657e+04  1.92709e-01  1.00000e+00 -1.60332e+02  0.00000e+00  7.93119e+00 
 9.62949e-03  8.47996e-03  0.00000e+00  3.47944e+00  1.57443e-04  3.59815e+02  3.60045e+02  2.90047e+00  2.91604e+00  2.15661e-01  1.23840e+02  2.21444e+02  4.26952e+06 -4.43819e+06  6.28558e+02  0.00000e+00 -1.68041e+05  3.55555e+04 -1.32485e+05  2.15678e-01  1.00000e+00 -1.24419e+02  0.00000e+00  1.00236e+01 
 9.84019e-03  8.71849e-03  0.00000e+00  3.47944e+00  1.57818e-04  3.59917e+02  3.60045e+02  2.77855e+00  2.79373e+00  2.38287e-01  7.77245e+01  2.20919e+02  4.97283e+06 -5.24282e+06  5.98501e+02  0.00000e+00 -2.69396e+05  2.02202e+04 -2.49176e+05  2.38267e-01  1.00000e+00 -7.83597e+01  0.00000e+00  1.32282e+01 
 1.00521e-02  8.95702e-03  0.00000e+00  3.47944e+00  1.53504e-04  3.60036e+02  3.60046e+02  2.61647e+00  2.63115e+00  2.60016e-01  8.88709e+00  2.27129e+02  6.17957e+06 -6.57140e+06  5.76492e+02  0.00000e+00 -3.91248e+05  2.33499e+03 -3.88913e+05  2.59978e-01  1.00000e+00 -9.60420e+00  0.00000e+00  1.88972e+01 
 1.02653e-02  9.19555e-03  0.00000e+00  3.47944e+00  1.43741e-04  3.60206e+02  3.60046e+02  2.39479e+00  2.40762e+00  2.82599e-01 -2.77867e+02  2.42558e+02  8.61881e+06 -9.08477e+06  5.56487e+02  0.00000e+00 -4.65402e+05 -6.60097e+04 -5.31412e+05  2.82525e-01  1.00000e+00  2.76296e+02  0.00000e+00  3.15704e+01 
 1.04795e-02  9.43408e-03  0.00000e+00  3.47944e+00  1.29262e-04  3.60639e+02  3.60047e+02  2.00339e+00  2.01268e+00  3.06454e-01 -4.20258e+03  2.69731e+02  1.52897e+07 -1.43867e+07  5.41993e+02  1.68642e+06  2.59001e+06 -2.70616e+06 -1.16156e+05  3.06423e-01  1.00000e+00  4.20071e+03  2.85821e+03  7.99745e+01 
