# Code_Saturne plot output (1D profile)
#
# Iteration output: 5470
# Time output:      2.30002e+01
#
#COLUMN_TITLES: Distance | X | Y | Z | diameter_Field2 | temp_Field1 | temp_Field2 | Velocity_Field1[Z] | Velocity_Field2[Z] | vol_f_Field2 | mass_trans_Field1 | Xd_Field2 | BK | COAL | COMP | NUCL | W1 | MT | SMBR | ALPBB | CONDNUM | GAMA | GAMANUC | epsilon_Field1
 4.56474e-03  1.39645e-04  0.00000e+00  3.47944e+00  8.18737e-04  3.60204e+02  3.60072e+02  6.22829e+00  6.36271e+00  4.48470e-01 -2.06629e+01  4.25184e+01  1.27165e+05 -1.78575e+05  5.10486e+02  0.00000e+00 -5.08998e+04 -8.98325e+02 -5.17981e+04  4.48466e-01  1.00000e+00  2.06631e+01  0.00000e+00  3.75877e+00 
 4.57812e-03  3.76525e-04  4.25872e-21  3.47944e+00  8.24874e-04  3.60204e+02  3.60072e+02  6.22683e+00  6.36233e+00  4.48693e-01 -2.04692e+01  4.22020e+01  1.26004e+05 -1.74423e+05  5.06627e+02  0.00000e+00 -4.79126e+04 -8.82842e+02 -4.87954e+04  4.48690e-01  1.00000e+00  2.04694e+01  0.00000e+00  3.78353e+00 
 4.60371e-03  6.13858e-04  0.00000e+00  3.47944e+00  8.29424e-04  3.60204e+02  3.60072e+02  6.22292e+00  6.35902e+00  4.49027e-01 -2.03354e+01  4.19705e+01  1.25498e+05 -1.71172e+05  5.03625e+02  0.00000e+00 -4.51704e+04 -8.71610e+02 -4.60420e+04  4.49024e-01  1.00000e+00  2.03356e+01  0.00000e+00  3.83167e+00 
 4.64138e-03  8.51483e-04  0.00000e+00  3.47944e+00  8.33135e-04  3.60204e+02  3.60072e+02  6.21720e+00  6.35377e+00  4.49545e-01 -2.02397e+01  4.17835e+01  1.25438e+05 -1.68319e+05  5.01037e+02  0.00000e+00 -4.23803e+04 -8.62652e+02 -4.32429e+04  4.49542e-01  1.00000e+00  2.02400e+01  0.00000e+00  3.90351e+00 
 4.69084e-03  1.08931e-03  0.00000e+00  3.47944e+00  8.36048e-04  3.60204e+02  3.60072e+02  6.20963e+00  6.34657e+00  4.50200e-01 -2.01777e+01  4.16379e+01  1.25807e+05 -1.65787e+05  4.98820e+02  0.00000e+00 -3.94810e+04 -8.55763e+02 -4.03367e+04  4.50197e-01  1.00000e+00  2.01779e+01  0.00000e+00  3.99951e+00 
 4.75174e-03  1.32727e-03  1.05001e-20  3.47944e+00  8.37946e-04  3.60204e+02  3.60072e+02  6.20025e+00  6.33745e+00  4.51011e-01 -2.01556e+01  4.15436e+01  1.26641e+05 -1.63693e+05  4.97096e+02  0.00000e+00 -3.65552e+04 -8.51358e+02 -3.74065e+04  4.51009e-01  1.00000e+00  2.01559e+01  0.00000e+00  4.12024e+00 
 4.82366e-03  1.56534e-03  0.00000e+00  3.47944e+00  8.38481e-04  3.60204e+02  3.60072e+02  6.18906e+00  6.32637e+00  4.51967e-01 -2.01833e+01  4.15172e+01  1.28013e+05 -1.62225e+05  4.96057e+02  0.00000e+00 -3.37157e+04 -8.50178e+02 -3.45659e+04  4.51965e-01  1.00000e+00  2.01835e+01  0.00000e+00  4.26643e+00 
 4.90611e-03  1.80349e-03  8.81027e-21  3.47944e+00  8.37336e-04  3.60203e+02  3.60072e+02  6.17609e+00  6.31334e+00  4.53071e-01 -2.02704e+01  4.15740e+01  1.29998e+05 -1.61567e+05  4.95883e+02  0.00000e+00 -3.10728e+04 -8.52932e+02 -3.19257e+04  4.53070e-01  1.00000e+00  2.02707e+01  0.00000e+00  4.43910e+00 
 4.99859e-03  2.04170e-03  0.00000e+00  3.47944e+00  8.34295e-04  3.60203e+02  3.60072e+02  6.16128e+00  6.29828e+00  4.54325e-01 -2.04244e+01  4.17256e+01  1.32661e+05 -1.61867e+05  4.96698e+02  0.00000e+00 -2.87094e+04 -8.60165e+02 -2.95696e+04  4.54324e-01  1.00000e+00  2.04247e+01  0.00000e+00  4.63935e+00 
 5.10055e-03  2.27996e-03  7.58893e-21  3.47944e+00  8.29265e-04  3.60202e+02  3.60072e+02  6.14460e+00  6.28112e+00  4.55728e-01 -2.06501e+01  4.19787e+01  1.36054e+05 -1.63225e+05  4.98564e+02  0.00000e+00 -2.66717e+04 -8.72250e+02 -2.75440e+04  4.55728e-01  1.00000e+00  2.06504e+01  0.00000e+00  4.86872e+00 
 5.21143e-03  2.51826e-03  7.09702e-21  3.47944e+00  8.22296e-04  3.60202e+02  3.60072e+02  6.12601e+00  6.26185e+00  4.57298e-01 -2.09495e+01  4.23346e+01  1.40202e+05 -1.65694e+05  5.01500e+02  0.00000e+00 -2.49900e+04 -8.89330e+02 -2.58794e+04  4.57299e-01  1.00000e+00  2.09498e+01  0.00000e+00  5.12853e+00 
 5.33068e-03  2.75659e-03  1.33300e-20  3.47944e+00  8.13529e-04  3.60201e+02  3.60072e+02  6.10542e+00  6.24038e+00  4.59028e-01 -2.13216e+01  4.27909e+01  1.45136e+05 -1.69278e+05  5.05400e+02  0.00000e+00 -2.36371e+04 -9.11438e+02 -2.45486e+04  4.59028e-01  1.00000e+00  2.13220e+01  0.00000e+00  5.42149e+00 
 5.45775e-03  2.99495e-03  1.25651e-20  3.47944e+00  8.03195e-04  3.60201e+02  3.60072e+02  6.08276e+00  6.21669e+00  4.60943e-01 -2.17653e+01  4.33415e+01  1.50843e+05 -1.73972e+05  5.10242e+02  0.00000e+00 -2.26189e+04 -9.38466e+02 -2.35574e+04  4.60941e-01  1.00000e+00  2.17657e+01  0.00000e+00  5.74878e+00 
 5.59212e-03  3.23333e-03  0.00000e+00  3.47944e+00  7.91530e-04  3.60200e+02  3.60072e+02  6.05797e+00  6.19073e+00  4.63019e-01 -2.22770e+01  4.39803e+01  1.57350e+05 -1.79740e+05  5.15878e+02  0.00000e+00 -2.18736e+04 -9.70315e+02 -2.28439e+04  4.63017e-01  1.00000e+00  2.22773e+01  0.00000e+00  6.11399e+00 
 5.73326e-03  3.47172e-03  0.00000e+00  3.47944e+00  7.78789e-04  3.60199e+02  3.60073e+02  6.03097e+00  6.16244e+00  4.65277e-01 -2.28556e+01  4.47000e+01  1.64641e+05 -1.86564e+05  5.22260e+02  0.00000e+00 -2.14008e+04 -1.00690e+03 -2.24077e+04  4.65275e-01  1.00000e+00  2.28560e+01  0.00000e+00  6.51882e+00 
 5.88069e-03  3.71014e-03 -5.35987e-21  3.47944e+00  7.65167e-04  3.60198e+02  3.60073e+02  6.00165e+00  6.13175e+00  4.67682e-01 -2.34986e+01  4.54959e+01  1.72760e+05 -1.94425e+05  5.29250e+02  0.00000e+00 -2.11362e+04 -1.04823e+03 -2.21844e+04  4.67682e-01  1.00000e+00  2.34989e+01  0.00000e+00  6.96800e+00 
 6.03395e-03  3.94857e-03  5.10973e-21  3.47944e+00  7.50860e-04  3.60198e+02  3.60073e+02  5.96994e+00  6.09860e+00  4.70260e-01 -2.42088e+01  4.63629e+01  1.81707e+05 -2.03341e+05  5.36837e+02  0.00000e+00 -2.10967e+04 -1.09446e+03 -2.21912e+04  4.70260e-01  1.00000e+00  2.42092e+01  0.00000e+00  7.46420e+00 
 6.19261e-03  4.18701e-03  0.00000e+00  3.47944e+00  7.35963e-04  3.60197e+02  3.60073e+02  5.93580e+00  6.06291e+00  4.72971e-01 -2.49875e+01  4.73016e+01  1.91572e+05 -2.13357e+05  5.44947e+02  0.00000e+00 -2.12406e+04 -1.14593e+03 -2.23865e+04  4.72973e-01  1.00000e+00  2.49879e+01  0.00000e+00  8.01366e+00 
 6.35626e-03  4.42546e-03  0.00000e+00  3.47944e+00  7.20590e-04  3.60196e+02  3.60073e+02  5.89908e+00  6.02458e+00  4.75787e-01 -2.58430e+01  4.83109e+01  2.02411e+05 -2.24531e+05  5.53570e+02  0.00000e+00 -2.15668e+04 -1.20328e+03 -2.27701e+04  4.75790e-01  1.00000e+00  2.58434e+01  0.00000e+00  8.62058e+00 
 6.52453e-03  4.66392e-03 -8.96437e-21  3.47944e+00  7.04783e-04  3.60196e+02  3.60073e+02  5.85967e+00  5.98349e+00  4.78654e-01 -2.67811e+01  4.93947e+01  2.14369e+05 -2.36948e+05  5.62662e+02  0.00000e+00 -2.20159e+04 -1.26729e+03 -2.32832e+04  4.78657e-01  1.00000e+00  2.67815e+01  0.00000e+00  9.29376e+00 
 6.69707e-03  4.90238e-03  1.72236e-20  3.47944e+00  6.88633e-04  3.60195e+02  3.60074e+02  5.81735e+00  5.93947e+00  4.81604e-01 -2.78184e+01  5.05533e+01  2.27508e+05 -2.50731e+05  5.72222e+02  0.00000e+00 -2.26508e+04 -1.33901e+03 -2.39898e+04  4.81608e-01  1.00000e+00  2.78189e+01  0.00000e+00  1.00388e+01 
 6.87356e-03  5.14086e-03  8.28595e-21  3.47944e+00  6.72109e-04  3.60194e+02  3.60074e+02  5.77220e+00  5.89256e+00  4.84581e-01 -2.89710e+01  5.17965e+01  2.42068e+05 -2.66054e+05  5.82216e+02  0.00000e+00 -2.34037e+04 -1.41999e+03 -2.48237e+04  4.84586e-01  1.00000e+00  2.89714e+01  0.00000e+00  1.08700e+01 
 7.05370e-03  5.37934e-03 -1.59677e-20  3.47944e+00  6.55271e-04  3.60194e+02  3.60074e+02  5.72413e+00  5.84260e+00  4.87636e-01 -3.02552e+01  5.31277e+01  2.58170e+05 -2.83124e+05  5.92678e+02  0.00000e+00 -2.43610e+04 -1.51152e+03 -2.58725e+04  4.87643e-01  1.00000e+00  3.02557e+01  0.00000e+00  1.17973e+01 
 7.23722e-03  5.61783e-03  0.00000e+00  3.47944e+00  6.38007e-04  3.60194e+02  3.60074e+02  5.67310e+00  5.78890e+00  4.90708e-01 -3.16901e+01  5.45657e+01  2.76244e+05 -3.02241e+05  6.03879e+02  0.00000e+00 -2.53931e+04 -1.61587e+03 -2.70089e+04  4.90716e-01  1.00000e+00  3.16906e+01  0.00000e+00  1.28470e+01 
 7.42387e-03  5.85632e-03  0.00000e+00  3.47944e+00  6.20375e-04  3.60194e+02  3.60075e+02  5.61751e+00  5.72986e+00  4.93848e-01 -3.33329e+01  5.61169e+01  2.96442e+05 -3.23796e+05  6.15773e+02  0.00000e+00 -2.67381e+04 -1.73684e+03 -2.84750e+04  4.93857e-01  1.00000e+00  3.33334e+01  0.00000e+00  1.40278e+01 
 7.61342e-03  6.09482e-03  0.00000e+00  3.47944e+00  6.02223e-04  3.60194e+02  3.60075e+02  5.55801e+00  5.66619e+00  4.96975e-01 -3.52448e+01  5.78088e+01  3.19385e+05 -3.48347e+05  6.28428e+02  0.00000e+00 -2.83332e+04 -1.87993e+03 -3.02131e+04  4.96983e-01  1.00000e+00  3.52454e+01  0.00000e+00  1.53745e+01 
 7.80566e-03  6.33332e-03  0.00000e+00  3.47944e+00  5.83639e-04  3.60195e+02  3.60075e+02  5.49246e+00  5.59597e+00  5.00157e-01 -3.75125e+01  5.96500e+01  3.45349e+05 -3.76452e+05  6.41520e+02  0.00000e+00 -3.04620e+04 -2.05150e+03 -3.25135e+04  5.00164e-01  1.00000e+00  3.75131e+01  0.00000e+00  1.69041e+01 
 8.00039e-03  6.57182e-03  0.00000e+00  3.47944e+00  5.64397e-04  3.60196e+02  3.60076e+02  5.42351e+00  5.52194e+00  5.03313e-01 -4.02573e+01  6.16842e+01  3.75381e+05 -4.09077e+05  6.55873e+02  0.00000e+00 -3.30402e+04 -2.26241e+03 -3.53026e+04  5.03320e-01  1.00000e+00  4.02579e+01  0.00000e+00  1.86757e+01 
 8.19744e-03  6.81033e-03  1.31016e-20  3.47944e+00  5.44596e-04  3.60198e+02  3.60076e+02  5.34526e+00  5.43829e+00  5.06560e-01 -4.36439e+01  6.39275e+01  4.10010e+05 -4.47200e+05  6.70512e+02  0.00000e+00 -3.65203e+04 -2.52565e+03 -3.90459e+04  5.06568e-01  1.00000e+00  4.36446e+01  0.00000e+00  2.07239e+01 
 8.39664e-03  7.04884e-03  0.00000e+00  3.47944e+00  5.23852e-04  3.60201e+02  3.60077e+02  5.26578e+00  5.35322e+00  5.09790e-01 -4.79379e+01  6.64596e+01  4.51392e+05 -4.92553e+05  6.86700e+02  0.00000e+00 -4.04744e+04 -2.86575e+03 -4.33401e+04  5.09800e-01  1.00000e+00  4.79386e+01  0.00000e+00  2.31851e+01 
 8.59784e-03  7.28736e-03  0.00000e+00  3.47944e+00  5.02323e-04  3.60205e+02  3.60077e+02  5.16908e+00  5.25069e+00  5.13071e-01 -5.34999e+01  6.93087e+01  5.00358e+05 -5.47333e+05  7.03464e+02  0.00000e+00 -4.62710e+04 -3.31402e+03 -4.95850e+04  5.13084e-01  1.00000e+00  5.35006e+01  0.00000e+00  2.60837e+01 
 8.80092e-03  7.52587e-03  0.00000e+00  3.47944e+00  4.79355e-04  3.60211e+02  3.60078e+02  5.07792e+00  5.15354e+00  5.16360e-01 -6.09681e+01  7.26303e+01  5.61637e+05 -6.15160e+05  7.23765e+02  0.00000e+00 -5.27991e+04 -3.93245e+03 -5.67315e+04  5.16373e-01  1.00000e+00  6.09689e+01  0.00000e+00  2.97430e+01 
 9.00573e-03  7.76439e-03 -1.17014e-20  3.47944e+00  4.55233e-04  3.60219e+02  3.60079e+02  4.95094e+00  5.02039e+00  5.19719e-01 -7.12997e+01  7.64798e+01  6.37098e+05 -7.01041e+05  7.43975e+02  0.00000e+00 -6.31990e+04 -4.81132e+03 -6.80104e+04  5.19734e-01  1.00000e+00  7.13006e+01  0.00000e+00  3.42034e+01 
 9.21216e-03  8.00291e-03  0.00000e+00  3.47944e+00  4.28800e-04  3.60231e+02  3.60079e+02  4.84684e+00  4.90989e+00  5.23172e-01 -8.63578e+01  8.11953e+01  7.38425e+05 -8.14178e+05  7.71756e+02  0.00000e+00 -7.49807e+04 -6.14602e+03 -8.11267e+04  5.23186e-01  1.00000e+00  8.63588e+01  0.00000e+00  4.02879e+01 
 9.42012e-03  8.24144e-03  0.00000e+00  3.47944e+00  4.00653e-04  3.60249e+02  3.60080e+02  4.66415e+00  4.71996e+00  5.26693e-01 -1.09250e+02  8.69009e+01  8.70711e+05 -9.68543e+05  7.98530e+02  0.00000e+00 -9.70333e+04 -8.26625e+03 -1.05300e+05  5.26710e-01  1.00000e+00  1.09251e+02  0.00000e+00  4.80562e+01 
 9.62949e-03  8.47996e-03  0.00000e+00  3.47944e+00  3.68683e-04  3.60276e+02  3.60081e+02  4.53848e+00  4.58749e+00  5.30407e-01 -1.47334e+02  9.44378e+01  1.06835e+06 -1.19434e+06  8.41794e+02  0.00000e+00 -1.25149e+05 -1.20303e+04 -1.37180e+05  5.30427e-01  1.00000e+00  1.47335e+02  0.00000e+00  5.98782e+01 
 9.84019e-03  8.71849e-03  0.00000e+00  3.47944e+00  3.33616e-04  3.60322e+02  3.60082e+02  4.26323e+00  4.30493e+00  5.34188e-01 -2.16295e+02  1.04367e+02  1.36289e+06 -1.54217e+06  8.76810e+02  0.00000e+00 -1.78404e+05 -1.93811e+04 -1.97785e+05  5.34216e-01  1.00000e+00  2.16296e+02  0.00000e+00  7.72016e+01 
 1.00521e-02  8.95702e-03  0.00000e+00  3.47944e+00  2.91634e-04  3.60405e+02  3.60083e+02  4.07520e+00  4.11114e+00  5.38261e-01 -3.66188e+02  1.19392e+02  1.90489e+06 -2.15189e+06  9.49676e+02  0.00000e+00 -2.46050e+05 -3.72414e+04 -2.83292e+05  5.38298e-01  1.00000e+00  3.66190e+02  0.00000e+00  1.10318e+02 
 1.02653e-02  9.19555e-03  0.00000e+00  3.47944e+00  2.43815e-04  3.60590e+02  3.60084e+02  3.59344e+00  3.62339e+00  5.42591e-01 -7.76109e+02  1.42812e+02  3.01001e+06 -3.30979e+06  9.95837e+02  0.00000e+00 -2.98785e+05 -9.36526e+04 -3.92438e+05  5.42620e-01  1.00000e+00  7.76111e+02  0.00000e+00  1.82049e+02 
 1.04795e-02  9.43408e-03  0.00000e+00  3.47944e+00  1.93012e-04  3.61194e+02  3.60086e+02  3.03064e+00  3.05051e+00  5.49156e-01 -6.30324e+03  1.80408e+02  6.03022e+06 -4.93627e+06  1.08486e+03  6.88422e+05  1.78346e+06 -1.78183e+06  1.62411e+03  5.49173e-01  1.00000e+00  6.30325e+03  3.80037e+03  4.60093e+02 
