# Code_Saturne plot output (1D profile)
#
# Iteration output: 4367
# Time output:      2.30007e+01
#
#COLUMN_TITLES: Distance | X | Y | Z | diameter_Field2 | temp_Field1 | temp_Field2 | Velocity_Field1[Z] | Velocity_Field2[Z] | vol_f_Field2 | mass_trans_Field1 | Xd_Field2 | BK | COAL | COMP | NUCL | W1 | MT | SMBR | ALPBB | CONDNUM | GAMA | GAMANUC | epsilon_Field1
 4.56474e-03  1.39645e-04  0.00000e+00  3.47944e+00  1.18508e-04  3.59727e+02  3.60055e+02  4.80774e+00  4.83173e+00  9.01481e-02  8.08224e+01  2.94025e+02  4.98798e+03 -1.05934e+06  1.83167e+03  0.00000e+00 -1.05252e+06  1.06621e+05 -9.45899e+05  9.01550e-02  1.00000e+00 -8.05524e+01  0.00000e+00  5.28484e-01 
 4.57812e-03  3.76525e-04  4.25872e-21  3.47944e+00  1.53190e-04  3.59728e+02  3.60055e+02  4.80708e+00  4.83970e+00  9.11791e-02  5.78498e+01  2.27460e+02  4.67185e+04 -6.91457e+05  1.41850e+03  0.00000e+00 -6.43320e+05  5.83728e+04 -5.84947e+05  9.11843e-02  1.00000e+00 -5.76553e+01  0.00000e+00  5.35448e-01 
 4.60371e-03  6.13858e-04  0.00000e+00  3.47944e+00  1.78073e-04  3.59730e+02  3.60055e+02  4.80550e+00  4.84425e+00  9.30813e-02  4.81602e+01  1.95675e+02  1.05257e+05 -5.48601e+05  1.22153e+03  0.00000e+00 -4.42123e+05  4.09513e+04 -4.01172e+05  9.30858e-02  1.00000e+00 -4.79970e+01  0.00000e+00  5.49010e-01 
 4.64138e-03  8.51483e-04  0.00000e+00  3.47944e+00  1.94741e-04  3.59734e+02  3.60055e+02  4.80323e+00  4.84598e+00  9.58266e-02  4.37379e+01  1.78928e+02  1.53913e+05 -4.89302e+05  1.11766e+03  0.00000e+00 -3.34272e+05  3.30335e+04 -3.01238e+05  9.58309e-02  1.00000e+00 -4.35879e+01  0.00000e+00  5.69425e-01 
 4.69084e-03  1.08931e-03  0.00000e+00  3.47944e+00  2.06194e-04  3.59739e+02  3.60055e+02  4.80017e+00  4.84554e+00  9.94627e-02  4.16514e+01  1.68988e+02  1.94062e+05 -4.66765e+05  1.05586e+03  0.00000e+00 -2.71647e+05  2.86234e+04 -2.43024e+05  9.94668e-02  1.00000e+00 -4.15063e+01  0.00000e+00  5.97083e-01 
 4.75174e-03  1.32727e-03  1.05001e-20  3.47944e+00  2.14434e-04  3.59746e+02  3.60055e+02  4.79629e+00  4.84346e+00  1.04007e-01  4.07579e+01  1.62495e+02  2.30617e+05 -4.64171e+05  1.01528e+03  0.00000e+00 -2.32539e+05  2.57550e+04 -2.06784e+05  1.04011e-01  1.00000e+00 -4.06129e+01  0.00000e+00  6.32598e-01 
 4.82366e-03  1.56534e-03  0.00000e+00  3.47944e+00  2.20764e-04  3.59755e+02  3.60055e+02  4.79155e+00  4.83992e+00  1.09492e-01  4.05108e+01  1.57835e+02  2.66977e+05 -4.74238e+05  9.86069e+02  0.00000e+00 -2.06275e+05  2.36175e+04 -1.82658e+05  1.09495e-01  1.00000e+00 -4.03629e+01  0.00000e+00  6.76754e-01 
 4.90611e-03  1.80349e-03  8.81027e-21  3.47944e+00  2.26028e-04  3.59764e+02  3.60055e+02  4.78585e+00  4.83503e+00  1.15930e-01  4.06036e+01  1.54160e+02  3.05068e+05 -4.93304e+05  9.62867e+02  0.00000e+00 -1.87273e+05  2.18342e+04 -1.65439e+05  1.15933e-01  1.00000e+00 -4.04507e+01  0.00000e+00  7.30539e-01 
 4.99859e-03  2.04170e-03  0.00000e+00  3.47944e+00  2.30781e-04  3.59775e+02  3.60055e+02  4.77911e+00  4.82887e+00  1.23333e-01  4.08406e+01  1.50985e+02  3.45808e+05 -5.19273e+05  9.42652e+02  0.00000e+00 -1.72522e+05  2.02157e+04 -1.52307e+05  1.23336e-01  1.00000e+00 -4.06812e+01  0.00000e+00  7.95128e-01 
 5.10055e-03  2.27996e-03  7.58893e-21  3.47944e+00  2.35406e-04  3.59787e+02  3.60055e+02  4.77120e+00  4.82142e+00  1.31682e-01  4.10742e+01  1.48018e+02  3.89431e+05 -5.50648e+05  9.23604e+02  0.00000e+00 -1.60293e+05  1.86652e+04 -1.41628e+05  1.31685e-01  1.00000e+00 -4.09072e+01  0.00000e+00  8.71918e-01 
 5.21143e-03  2.51826e-03  7.09702e-21  3.47944e+00  2.40181e-04  3.59800e+02  3.60055e+02  4.76196e+00  4.81262e+00  1.40945e-01  4.11863e+01  1.45076e+02  4.35623e+05 -5.86147e+05  9.04601e+02  0.00000e+00 -1.49619e+05  1.71353e+04 -1.32484e+05  1.40947e-01  1.00000e+00 -4.10108e+01  0.00000e+00  9.62481e-01 
 5.33068e-03  2.75659e-03  1.33300e-20  3.47944e+00  2.45315e-04  3.59814e+02  3.60055e+02  4.75125e+00  4.80234e+00  1.51062e-01  4.10792e+01  1.42039e+02  4.83641e+05 -6.24483e+05  8.84873e+02  0.00000e+00 -1.39957e+05  1.56089e+04 -1.24348e+05  1.51065e-01  1.00000e+00 -4.08949e+01  0.00000e+00  1.06858e+00 
 5.45775e-03  2.99495e-03  1.25651e-20  3.47944e+00  2.50976e-04  3.59829e+02  3.60055e+02  4.73883e+00  4.79041e+00  1.62005e-01  4.06847e+01  1.38836e+02  5.32349e+05 -6.64471e+05  8.63878e+02  0.00000e+00 -1.31258e+05  1.40857e+04 -1.17172e+05  1.62010e-01  1.00000e+00 -4.04916e+01  0.00000e+00  1.19211e+00 
 5.59212e-03  3.23333e-03  0.00000e+00  3.47944e+00  2.57271e-04  3.59843e+02  3.60055e+02  4.72450e+00  4.77663e+00  1.73614e-01  3.99387e+01  1.35439e+02  5.80605e+05 -7.04541e+05  8.41355e+02  0.00000e+00 -1.23094e+05  1.25831e+04 -1.10511e+05  1.73622e-01  1.00000e+00 -3.97369e+01  0.00000e+00  1.33549e+00 
 5.73326e-03  3.47172e-03  0.00000e+00  3.47944e+00  2.64269e-04  3.59858e+02  3.60055e+02  4.70804e+00  4.76080e+00  1.85798e-01  3.88227e+01  1.31853e+02  6.26761e+05 -7.43344e+05  8.17459e+02  0.00000e+00 -1.15765e+05  1.11226e+04 -1.04642e+05  1.85810e-01  1.00000e+00 -3.86129e+01  0.00000e+00  1.50028e+00 
 5.88069e-03  3.71014e-03 -5.35987e-21  3.47944e+00  2.71966e-04  3.59874e+02  3.60055e+02  4.68923e+00  4.74270e+00  1.98310e-01  3.73189e+01  1.28121e+02  6.69795e+05 -7.79343e+05  7.92262e+02  0.00000e+00 -1.08756e+05  9.72960e+03 -9.90262e+04  1.98324e-01  1.00000e+00 -3.71020e+01  0.00000e+00  1.68906e+00 
 6.03395e-03  3.94857e-03  5.10973e-21  3.47944e+00  2.80313e-04  3.59889e+02  3.60055e+02  4.66789e+00  4.72215e+00  2.10990e-01  3.54726e+01  1.24306e+02  7.08584e+05 -8.11533e+05  7.66467e+02  0.00000e+00 -1.02182e+05  8.42946e+03 -9.37525e+04  2.11007e-01  1.00000e+00 -3.52495e+01  0.00000e+00  1.90348e+00 
 6.19261e-03  4.18701e-03  0.00000e+00  3.47944e+00  2.89187e-04  3.59904e+02  3.60055e+02  4.64391e+00  4.69899e+00  2.23709e-01  3.33345e+01  1.20492e+02  7.42647e+05 -8.39573e+05  7.40393e+02  0.00000e+00 -9.61858e+04  7.23779e+03 -8.89480e+04  2.23726e-01  1.00000e+00 -3.31063e+01  0.00000e+00  2.14575e+00 
 6.35626e-03  4.42546e-03  0.00000e+00  3.47944e+00  2.98404e-04  3.59918e+02  3.60055e+02  4.61716e+00  4.67309e+00  2.36296e-01  3.09834e+01  1.16770e+02  7.72060e+05 -8.63366e+05  7.14757e+02  0.00000e+00 -9.05913e+04  6.16833e+03 -8.44229e+04  2.36308e-01  1.00000e+00 -3.07510e+01  0.00000e+00  2.41832e+00 
 6.52453e-03  4.66392e-03 -8.96437e-21  3.47944e+00  3.07719e-04  3.59933e+02  3.60055e+02  4.58761e+00  4.64438e+00  2.48660e-01  2.84889e+01  1.13236e+02  7.97267e+05 -8.83587e+05  6.90014e+02  0.00000e+00 -8.56300e+04  5.22266e+03 -8.04073e+04  2.48664e-01  1.00000e+00 -2.82531e+01  0.00000e+00  2.72328e+00 
 6.69707e-03  4.90238e-03  1.72236e-20  3.47944e+00  3.16849e-04  3.59947e+02  3.60055e+02  4.55524e+00  4.61276e+00  2.60728e-01  2.59259e+01  1.09973e+02  8.19164e+05 -9.01259e+05  6.66713e+02  0.00000e+00 -8.14283e+04  4.39816e+03 -7.70301e+04  2.60725e-01  1.00000e+00 -2.56871e+01  0.00000e+00  3.06309e+00 
 6.87356e-03  5.14086e-03  8.28595e-21  3.47944e+00  3.25449e-04  3.59961e+02  3.60055e+02  4.52005e+00  4.57821e+00  2.72351e-01  2.33424e+01  1.07067e+02  8.39461e+05 -9.17732e+05  6.45113e+02  0.00000e+00 -7.76258e+04  3.68653e+03 -7.39393e+04  2.72346e-01  1.00000e+00 -2.31008e+01  0.00000e+00  3.44250e+00 
 7.05370e-03  5.37934e-03 -1.59677e-20  3.47944e+00  3.33229e-04  3.59974e+02  3.60055e+02  4.48200e+00  4.54063e+00  2.83537e-01  2.07815e+01  1.04568e+02  8.59295e+05 -9.34474e+05  6.25753e+02  0.00000e+00 -7.45530e+04  3.07457e+03 -7.14784e+04  2.83533e-01  1.00000e+00 -2.05368e+01  0.00000e+00  3.86407e+00 
 7.23722e-03  5.61783e-03  0.00000e+00  3.47944e+00  3.39865e-04  3.59987e+02  3.60055e+02  4.44106e+00  4.49992e+00  2.94216e-01  1.82562e+01  1.02527e+02  8.80663e+05 -9.53220e+05  6.08816e+02  0.00000e+00 -7.19484e+04  2.54740e+03 -6.94010e+04  2.94214e-01  1.00000e+00 -1.80080e+01  0.00000e+00  4.33527e+00 
 7.42387e-03  5.85632e-03  0.00000e+00  3.47944e+00  3.45156e-04  3.60000e+02  3.60055e+02  4.39698e+00  4.45583e+00  3.04467e-01  1.57725e+01  1.00955e+02  9.04781e+05 -9.75572e+05  5.94438e+02  0.00000e+00 -7.01966e+04  2.08901e+03 -6.81076e+04  3.04467e-01  1.00000e+00 -1.55199e+01  0.00000e+00  4.86236e+00 
 7.61342e-03  6.09482e-03  0.00000e+00  3.47944e+00  3.48865e-04  3.60012e+02  3.60055e+02  4.34970e+00  4.40821e+00  3.14229e-01  1.33116e+01  9.98825e+01  9.33728e+05 -1.00332e+06  5.82545e+02  0.00000e+00 -6.90102e+04  1.68436e+03 -6.73259e+04  3.14231e-01  1.00000e+00 -1.30537e+01  0.00000e+00  5.45804e+00 
 7.80566e-03  6.33332e-03  0.00000e+00  3.47944e+00  3.50929e-04  3.60024e+02  3.60056e+02  4.29865e+00  4.35652e+00  3.23650e-01  1.08462e+01  9.92953e+01  9.68394e+05 -1.03801e+06  5.73122e+02  0.00000e+00 -6.90470e+04  1.31782e+03 -6.77292e+04  3.23656e-01  1.00000e+00 -1.05815e+01  0.00000e+00  6.13242e+00 
 8.00039e-03  6.57182e-03  0.00000e+00  3.47944e+00  3.51171e-04  3.60036e+02  3.60056e+02  4.24386e+00  4.30073e+00  3.32617e-01  8.33328e+00  9.92274e+01  1.01145e+06 -1.08175e+06  5.66034e+02  0.00000e+00 -6.97270e+04  9.76110e+02 -6.87509e+04  3.32623e-01  1.00000e+00 -8.06035e+00  0.00000e+00  6.90869e+00 
 8.19744e-03  6.81033e-03  1.31016e-20  3.47944e+00  3.49643e-04  3.60048e+02  3.60056e+02  4.18408e+00  4.23963e+00  3.41322e-01  5.71527e+00  9.96617e+01  1.06382e+06 -1.13640e+06  5.61187e+02  0.00000e+00 -7.20175e+04  6.43876e+02 -7.13736e+04  3.41328e-01  1.00000e+00 -5.43224e+00  0.00000e+00  7.80435e+00 
 8.39664e-03  7.04884e-03  0.00000e+00  3.47944e+00  3.46171e-04  3.60060e+02  3.60056e+02  4.11994e+00  4.17379e+00  3.49682e-01  2.91925e+00  1.00662e+02  1.12938e+06 -1.20550e+06  5.58622e+02  0.00000e+00 -7.55583e+04  3.06615e+02 -7.52517e+04  3.49688e-01  1.00000e+00 -2.62387e+00  0.00000e+00  8.86185e+00 
 8.59784e-03  7.28736e-03  0.00000e+00  3.47944e+00  3.40859e-04  3.60071e+02  3.60057e+02  4.04826e+00  4.10010e+00  3.57894e-01 -4.54730e-01  1.02231e+02  1.21017e+06 -1.29224e+06  5.57783e+02  0.00000e+00 -8.15159e+04 -1.31215e+02 -8.16471e+04  3.57907e-01  1.00000e+00  1.13164e+00  0.00000e+00  1.01192e+01 
 8.80092e-03  7.52587e-03  0.00000e+00  3.47944e+00  3.33443e-04  3.60083e+02  3.60057e+02  3.97211e+00  4.02163e+00  3.65796e-01 -8.38416e+00  1.04505e+02  1.31381e+06 -1.40350e+06  5.59224e+02  0.00000e+00 -8.91264e+04 -1.05525e+03 -9.01816e+04  3.65813e-01  1.00000e+00  9.09933e+00  0.00000e+00  1.16678e+01 
 9.00573e-03  7.76439e-03 -1.17014e-20  3.47944e+00  3.23982e-04  3.60096e+02  3.60057e+02  3.88235e+00  3.92917e+00  3.73724e-01 -1.80629e+01  1.07558e+02  1.44471e+06 -1.54724e+06  5.62975e+02  0.00000e+00 -1.01959e+05 -2.19918e+03 -1.04159e+05  3.73749e-01  1.00000e+00  1.88247e+01  0.00000e+00  1.35778e+01 
 9.21216e-03  8.00291e-03  0.00000e+00  3.47944e+00  3.11905e-04  3.60111e+02  3.60058e+02  3.78981e+00  3.83359e+00  3.81447e-01 -3.07775e+01  1.11723e+02  1.62231e+06 -1.74147e+06  5.69968e+02  0.00000e+00 -1.18594e+05 -3.75683e+03 -1.22350e+05  3.81480e-01  1.00000e+00  3.15987e+01  0.00000e+00  1.61014e+01 
 9.42012e-03  8.24144e-03  0.00000e+00  3.47944e+00  2.97249e-04  3.60129e+02  3.60058e+02  3.66963e+00  3.71006e+00  3.89349e-01 -4.89612e+01  1.17233e+02  1.86063e+06 -2.00819e+06  5.79463e+02  0.00000e+00 -1.46978e+05 -6.09373e+03 -1.53072e+05  3.89395e-01  1.00000e+00  4.98575e+01  0.00000e+00  1.94313e+01 
 9.62949e-03  8.47996e-03  0.00000e+00  3.47944e+00  2.79010e-04  3.60153e+02  3.60058e+02  3.54770e+00  3.58363e+00  3.97254e-01 -7.78014e+01  1.24897e+02  2.21400e+06 -2.40204e+06  5.96037e+02  0.00000e+00 -1.87438e+05 -1.00562e+04 -1.97494e+05  3.97314e-01  1.00000e+00  7.87995e+01  0.00000e+00  2.43213e+01 
 9.84019e-03  8.71849e-03  0.00000e+00  3.47944e+00  2.57010e-04  3.60190e+02  3.60059e+02  3.36706e+00  3.39904e+00  4.05327e-01 -1.29396e+02  1.35590e+02  2.74760e+06 -3.00977e+06  6.15195e+02  0.00000e+00 -2.61548e+05 -1.77238e+04 -2.79272e+05  4.05412e-01  1.00000e+00  1.30533e+02  0.00000e+00  3.15871e+01 
 1.00521e-02  8.95702e-03  0.00000e+00  3.47944e+00  2.29056e-04  3.60253e+02  3.60060e+02  3.18768e+00  3.21618e+00  4.13555e-01 -2.41064e+02  1.52139e+02  3.72181e+06 -4.09323e+06  6.47453e+02  0.00000e+00 -3.70773e+05 -3.62012e+04 -4.06974e+05  4.13663e-01  1.00000e+00  2.42416e+02  0.00000e+00  4.51350e+01 
 1.02653e-02  9.19555e-03  0.00000e+00  3.47944e+00  1.94706e-04  3.60393e+02  3.60061e+02  2.86323e+00  2.88761e+00  4.22499e-01 -5.55009e+02  1.78982e+02  5.73933e+06 -6.26021e+06  6.76023e+02  0.00000e+00 -5.20206e+05 -9.57324e+04 -6.15938e+05  4.22643e-01  1.00000e+00  5.56712e+02  0.00000e+00  7.49265e+01 
 1.04795e-02  9.43408e-03  0.00000e+00  3.47944e+00  1.53737e-04  3.60857e+02  3.60062e+02  2.39309e+00  2.40829e+00  4.34947e-01 -5.35773e+03  2.26684e+02  1.16411e+07 -1.13157e+07  7.38561e+02  1.93466e+06  2.26076e+06 -2.30157e+06 -4.08119e+04  4.35089e-01  1.00000e+00  5.36007e+03  3.36203e+03  1.89685e+02 
