# Code_Saturne plot output (1D profile)
#
# Iteration output: 4835
# Time output:      2.30003e+01
#
#COLUMN_TITLES: Distance | X | Y | Z | diameter_Field2 | temp_Field1 | temp_Field2 | Velocity_Field1[Z] | Velocity_Field2[Z] | vol_f_Field2 | mass_trans_Field1 | Xd_Field2 | BK | COAL | COMP | NUCL | W1 | MT | SMBR | ALPBB | CONDNUM | GAMA | GAMANUC | epsilon_Field1
 4.56474e-03  1.39645e-04  0.00000e+00  3.47944e+00  2.92828e-04  3.59868e+02  3.60057e+02  5.17552e+00  5.24184e+00  2.07870e-01  3.56168e+01  1.18973e+02  2.23827e+05 -5.89311e+05  8.94558e+02  0.00000e+00 -3.64590e+05  8.54720e+03 -3.56043e+05  2.07884e-01  1.00000e+00 -3.55095e+01  0.00000e+00  1.18504e+00 
 4.57812e-03  3.76525e-04  4.25872e-21  3.47944e+00  3.22423e-04  3.59868e+02  3.60057e+02  5.17354e+00  5.24748e+00  2.08942e-01  3.14199e+01  1.08053e+02  2.14665e+05 -4.99923e+05  8.13117e+02  0.00000e+00 -2.84445e+05  6.81276e+03 -2.77632e+05  2.08957e-01  1.00000e+00 -3.13249e+01  0.00000e+00  1.19877e+00 
 4.60371e-03  6.13858e-04  0.00000e+00  3.47944e+00  3.44597e-04  3.59869e+02  3.60057e+02  5.17056e+00  5.24995e+00  2.10642e-01  2.88762e+01  1.01100e+02  2.08456e+05 -4.49383e+05  7.61303e+02  0.00000e+00 -2.40165e+05  5.81099e+03 -2.34354e+05  2.10657e-01  1.00000e+00 -2.87884e+01  0.00000e+00  1.22518e+00 
 4.64138e-03  8.51483e-04  0.00000e+00  3.47944e+00  3.63837e-04  3.59871e+02  3.60057e+02  5.16637e+00  5.25028e+00  2.13004e-01  2.69943e+01  9.57534e+01  2.04058e+05 -4.14868e+05  7.21326e+02  0.00000e+00 -2.10089e+05  5.08786e+03 -2.05001e+05  2.13019e-01  1.00000e+00 -2.69116e+01  0.00000e+00  1.26464e+00 
 4.69084e-03  1.08931e-03  0.00000e+00  3.47944e+00  3.82915e-04  3.59873e+02  3.60057e+02  5.16082e+00  5.24900e+00  2.16097e-01  2.53563e+01  9.09827e+01  2.00237e+05 -3.86965e+05  6.85525e+02  0.00000e+00 -1.86042e+05  4.47586e+03 -1.81566e+05  2.16113e-01  1.00000e+00 -2.52777e+01  0.00000e+00  1.31729e+00 
 4.75174e-03  1.32727e-03  1.05001e-20  3.47944e+00  4.02958e-04  3.59876e+02  3.60057e+02  5.15395e+00  5.24629e+00  2.19832e-01  2.38078e+01  8.64573e+01  1.96409e+05 -3.62180e+05  6.51353e+02  0.00000e+00 -1.65120e+05  3.92546e+03 -1.61194e+05  2.19848e-01  1.00000e+00 -2.37329e+01  0.00000e+00  1.38372e+00 
 4.82366e-03  1.56534e-03  0.00000e+00  3.47944e+00  4.24407e-04  3.59880e+02  3.60057e+02  5.14598e+00  5.24011e+00  2.24205e-01  2.21417e+01  8.20878e+01  1.92269e+05 -3.39261e+05  6.18374e+02  0.00000e+00 -1.46374e+05  3.39844e+03 -1.42975e+05  2.24222e-01  1.00000e+00 -2.20708e+01  0.00000e+00  1.46467e+00 
 4.90611e-03  1.80349e-03  8.81027e-21  3.47944e+00  4.47274e-04  3.59884e+02  3.60057e+02  5.13660e+00  5.23079e+00  2.29142e-01  2.05176e+01  7.78910e+01  1.87743e+05 -3.17757e+05  5.86228e+02  0.00000e+00 -1.29428e+05  2.92355e+03 -1.26504e+05  2.29160e-01  1.00000e+00 -2.04503e+01  0.00000e+00  1.56084e+00 
 4.99859e-03  2.04170e-03  0.00000e+00  3.47944e+00  4.71330e-04  3.59889e+02  3.60057e+02  5.12565e+00  5.21914e+00  2.34672e-01  1.89709e+01  7.39157e+01  1.82893e+05 -2.97716e+05  5.55539e+02  0.00000e+00 -1.14267e+05  2.50453e+03 -1.11763e+05  2.34689e-01  1.00000e+00 -1.89071e+01  0.00000e+00  1.67321e+00 
 5.10055e-03  2.27996e-03  7.58893e-21  3.47944e+00  4.96089e-04  3.59895e+02  3.60057e+02  5.11298e+00  5.20550e+00  2.40681e-01  1.75222e+01  7.02267e+01  1.77967e+05 -2.79254e+05  5.26955e+02  0.00000e+00 -1.00760e+05  2.14276e+03 -9.86170e+04  2.40697e-01  1.00000e+00 -1.74614e+01  0.00000e+00  1.80320e+00 
 5.21143e-03  2.51826e-03  7.09702e-21  3.47944e+00  5.20931e-04  3.59901e+02  3.60057e+02  5.09848e+00  5.18991e+00  2.47199e-01  1.61882e+01  6.68778e+01  1.73192e+05 -2.62637e+05  5.00786e+02  0.00000e+00 -8.89439e+04  1.83531e+03 -8.71086e+04  2.47216e-01  1.00000e+00 -1.61300e+01  0.00000e+00  1.95216e+00 
 5.33068e-03  2.75659e-03  1.33300e-20  3.47944e+00  5.45096e-04  3.59908e+02  3.60057e+02  5.08208e+00  5.17234e+00  2.54084e-01  1.49705e+01  6.39131e+01  1.68895e+05 -2.47992e+05  4.77375e+02  0.00000e+00 -7.86193e+04  1.57785e+03 -7.70415e+04  2.54099e-01  1.00000e+00 -1.49144e+01  0.00000e+00  2.12216e+00 
 5.45775e-03  2.99495e-03  1.25651e-20  3.47944e+00  5.67808e-04  3.59916e+02  3.60057e+02  5.06372e+00  5.15280e+00  2.61287e-01  1.38688e+01  6.13567e+01  1.65296e+05 -2.35495e+05  4.56978e+02  0.00000e+00 -6.97420e+04  1.36436e+03 -6.83776e+04  2.61301e-01  1.00000e+00 -1.38143e+01  0.00000e+00  2.31409e+00 
 5.59212e-03  3.23333e-03  0.00000e+00  3.47944e+00  5.88339e-04  3.59924e+02  3.60057e+02  5.04327e+00  5.13114e+00  2.68650e-01  1.28686e+01  5.92156e+01  1.62622e+05 -2.25166e+05  4.39585e+02  0.00000e+00 -6.21037e+04  1.18803e+03 -6.09157e+04  2.68668e-01  1.00000e+00 -1.28153e+01  0.00000e+00  2.52979e+00 
 5.73326e-03  3.47172e-03  0.00000e+00  3.47944e+00  6.06124e-04  3.59933e+02  3.60057e+02  5.02069e+00  5.10736e+00  2.76175e-01  1.19595e+01  5.74782e+01  1.60999e+05 -2.17081e+05  4.25176e+02  0.00000e+00 -5.56567e+04  1.04224e+03 -5.46145e+04  2.76194e-01  1.00000e+00 -1.19068e+01  0.00000e+00  2.77128e+00 
 5.88069e-03  3.71014e-03 -5.35987e-21  3.47944e+00  6.20774e-04  3.59943e+02  3.60057e+02  4.99589e+00  5.08132e+00  2.83786e-01  1.11199e+01  5.61219e+01  1.60508e+05 -2.11188e+05  4.13542e+02  0.00000e+00 -5.02658e+04  9.20565e+02 -4.93453e+04  2.83801e-01  1.00000e+00 -1.10674e+01  0.00000e+00  3.04051e+00 
 6.03395e-03  3.94857e-03  5.10973e-21  3.47944e+00  6.32130e-04  3.59953e+02  3.60057e+02  4.96879e+00  5.05298e+00  2.91537e-01  1.03319e+01  5.51138e+01  1.61140e+05 -2.07453e+05  4.04362e+02  0.00000e+00 -4.59082e+04  8.17342e+02 -4.50908e+04  2.91548e-01  1.00000e+00 -1.02792e+01  0.00000e+00  3.33961e+00 
 6.19261e-03  4.18701e-03  0.00000e+00  3.47944e+00  6.40161e-04  3.59963e+02  3.60057e+02  4.93933e+00  5.02229e+00  2.99291e-01  9.56951e+00  5.44225e+01  1.62950e+05 -2.05718e+05  3.97294e+02  0.00000e+00 -4.23714e+04  7.27830e+02 -4.16435e+04  2.99301e-01  1.00000e+00 -9.51616e+00  0.00000e+00  3.67237e+00 
 6.35626e-03  4.42546e-03  0.00000e+00  3.47944e+00  6.45007e-04  3.59974e+02  3.60057e+02  4.90743e+00  4.98919e+00  3.07023e-01  8.81123e+00  5.40138e+01  1.65881e+05 -2.05874e+05  3.92129e+02  0.00000e+00 -3.96001e+04  6.47990e+02 -3.89521e+04  3.07033e-01  1.00000e+00 -8.75685e+00  0.00000e+00  4.03992e+00 
 6.52453e-03  4.66392e-03 -8.96437e-21  3.47944e+00  6.46855e-04  3.59986e+02  3.60057e+02  4.87303e+00  4.95359e+00  3.14611e-01  8.03245e+00  5.38596e+01  1.69978e+05 -2.07788e+05  3.88637e+02  0.00000e+00 -3.74214e+04  5.74377e+02 -3.68470e+04  3.14622e-01  1.00000e+00 -7.97668e+00  0.00000e+00  4.44677e+00 
 6.69707e-03  4.90238e-03  1.72236e-20  3.47944e+00  6.45992e-04  3.59997e+02  3.60057e+02  4.83598e+00  4.91537e+00  3.22099e-01  7.21532e+00  5.39317e+01  1.75210e+05 -2.11423e+05  3.86620e+02  0.00000e+00 -3.58267e+04  5.04107e+02 -3.53226e+04  3.22110e-01  1.00000e+00 -7.15782e+00  0.00000e+00  4.89647e+00 
 6.87356e-03  5.14086e-03  8.28595e-21  3.47944e+00  6.42650e-04  3.60009e+02  3.60058e+02  4.79622e+00  4.87443e+00  3.29413e-01  6.33798e+00  5.42124e+01  1.81654e+05 -2.16750e+05  3.85859e+02  0.00000e+00 -3.47107e+04  4.34607e+02 -3.42761e+04  3.29425e-01  1.00000e+00 -6.27842e+00  0.00000e+00  5.39549e+00 
 7.05370e-03  5.37934e-03 -1.59677e-20  3.47944e+00  6.37119e-04  3.60021e+02  3.60058e+02  4.75356e+00  4.83064e+00  3.36619e-01  5.38193e+00  5.46832e+01  1.89308e+05 -2.23813e+05  3.86217e+02  0.00000e+00 -3.41193e+04  3.63509e+02 -3.37558e+04  3.36629e-01  1.00000e+00 -5.31995e+00  0.00000e+00  5.94862e+00 
 7.23722e-03  5.61783e-03  0.00000e+00  3.47944e+00  6.29567e-04  3.60034e+02  3.60058e+02  4.70795e+00  4.78391e+00  3.43604e-01  4.32456e+00  5.53395e+01  1.98358e+05 -2.32666e+05  3.87547e+02  0.00000e+00 -3.39207e+04  2.88577e+02 -3.36321e+04  3.43614e-01  1.00000e+00 -4.25982e+00  0.00000e+00  6.56662e+00 
 7.42387e-03  5.85632e-03  0.00000e+00  3.47944e+00  6.20237e-04  3.60047e+02  3.60058e+02  4.65896e+00  4.73384e+00  3.50500e-01  3.14365e+00  5.61722e+01  2.08842e+05 -2.43505e+05  3.89795e+02  0.00000e+00 -3.42727e+04  2.07341e+02 -3.40653e+04  3.50509e-01  1.00000e+00 -3.07578e+00  0.00000e+00  7.25647e+00 
 7.61342e-03  6.09482e-03  0.00000e+00  3.47944e+00  6.09190e-04  3.60060e+02  3.60058e+02  4.60669e+00  4.68050e+00  3.57148e-01  1.81150e+00  5.71910e+01  2.21121e+05 -2.56511e+05  3.92873e+02  0.00000e+00 -3.49968e+04  1.17207e+02 -3.48796e+04  3.57157e-01  1.00000e+00 -1.74011e+00  0.00000e+00  8.03679e+00 
 7.80566e-03  6.33332e-03  0.00000e+00  3.47944e+00  5.96630e-04  3.60073e+02  3.60059e+02  4.55017e+00  4.62298e+00  3.63746e-01  5.87719e-01  5.83953e+01  2.35285e+05 -2.72075e+05  3.96784e+02  0.00000e+00 -3.63933e+04  2.81522e+01 -3.63652e+04  3.63754e-01  1.00000e+00 -4.16902e-01  0.00000e+00  8.91805e+00 
 8.00039e-03  6.57182e-03  0.00000e+00  3.47944e+00  5.82524e-04  3.60087e+02  3.60059e+02  4.49004e+00  4.56182e+00  3.70105e-01 -3.40283e+00  5.98097e+01  2.51962e+05 -2.90576e+05  4.01490e+02  0.00000e+00 -3.82121e+04 -2.43592e+02 -3.84557e+04  3.70114e-01  1.00000e+00  3.58361e+00  0.00000e+00  9.93399e+00 
 8.19744e-03  6.81033e-03  1.31016e-20  3.47944e+00  5.67011e-04  3.60101e+02  3.60059e+02  4.42396e+00  4.49479e+00  3.76437e-01 -8.06620e+00  6.14464e+01  2.71403e+05 -3.12732e+05  4.07022e+02  0.00000e+00 -4.09220e+04 -5.67009e+02 -4.14890e+04  3.76445e-01  1.00000e+00  8.25826e+00  0.00000e+00  1.11023e+01 
 8.39664e-03  7.04884e-03  0.00000e+00  3.47944e+00  5.49855e-04  3.60116e+02  3.60059e+02  4.35431e+00  4.42416e+00  3.82578e-01 -1.36259e+01  6.33640e+01  2.94767e+05 -3.39552e+05  4.13617e+02  0.00000e+00 -4.43714e+04 -9.63538e+02 -4.53349e+04  3.82586e-01  1.00000e+00  1.38309e+01  0.00000e+00  1.24850e+01 
 8.59784e-03  7.28736e-03  0.00000e+00  3.47944e+00  5.31111e-04  3.60132e+02  3.60060e+02  4.27489e+00  4.34385e+00  3.88770e-01 -2.04277e+01  6.56007e+01  3.22751e+05 -3.72520e+05  4.20903e+02  0.00000e+00 -4.93479e+04 -1.46549e+03 -5.08134e+04  3.88776e-01  1.00000e+00  2.06476e+01  0.00000e+00  1.41225e+01 
 8.80092e-03  7.52587e-03  0.00000e+00  3.47944e+00  5.10345e-04  3.60150e+02  3.60060e+02  4.19350e+00  4.26159e+00  3.94792e-01 -2.90061e+01  6.82704e+01  3.57768e+05 -4.13844e+05  4.29690e+02  0.00000e+00 -5.56461e+04 -2.12712e+03 -5.77733e+04  3.94800e-01  1.00000e+00  2.92436e+01  0.00000e+00  1.61491e+01 
 9.00573e-03  7.76439e-03 -1.17014e-20  3.47944e+00  4.87591e-04  3.60170e+02  3.60061e+02  4.09320e+00  4.16041e+00  4.00986e-01 -4.02280e+01  7.14571e+01  4.01313e+05 -4.67064e+05  4.39822e+02  0.00000e+00 -6.53109e+04 -3.03476e+03 -6.83457e+04  4.00993e-01  1.00000e+00  4.04864e+01  0.00000e+00  1.86329e+01 
 9.21216e-03  8.00291e-03  0.00000e+00  3.47944e+00  4.62052e-04  3.60194e+02  3.60061e+02  3.99668e+00  4.06276e+00  4.07150e-01 -5.56348e+01  7.54072e+01  4.59446e+05 -5.37709e+05  4.52428e+02  0.00000e+00 -7.78104e+04 -4.35629e+03 -8.21667e+04  4.07160e-01  1.00000e+00  5.59193e+01  0.00000e+00  2.19460e+01 
 9.42012e-03  8.24144e-03  0.00000e+00  3.47944e+00  4.33718e-04  3.60223e+02  3.60061e+02  3.85789e+00  3.92168e+00  4.13561e-01 -7.79283e+01  8.03342e+01  5.36540e+05 -6.35758e+05  4.67431e+02  0.00000e+00 -9.87513e+04 -6.39316e+03 -1.05144e+05  4.13570e-01  1.00000e+00  7.82452e+01  0.00000e+00  2.62403e+01 
 9.62949e-03  8.47996e-03  0.00000e+00  3.47944e+00  4.01109e-04  3.60263e+02  3.60062e+02  3.73943e+00  3.79834e+00  4.20067e-01 -1.12815e+02  8.68659e+01  6.51317e+05 -7.78847e+05  4.87294e+02  0.00000e+00 -1.27043e+05 -9.84407e+03 -1.36887e+05  4.20080e-01  1.00000e+00  1.13175e+02  0.00000e+00  3.27248e+01 
 9.84019e-03  8.71849e-03  0.00000e+00  3.47944e+00  3.64180e-04  3.60320e+02  3.60063e+02  3.53385e+00  3.58615e+00  4.26882e-01 -1.72850e+02  9.56758e+01  8.25229e+05 -1.00181e+06  5.08221e+02  0.00000e+00 -1.76073e+05 -1.63344e+04 -1.92408e+05  4.26893e-01  1.00000e+00  1.73268e+02  0.00000e+00  4.24532e+01 
 1.00521e-02  8.95702e-03  0.00000e+00  3.47944e+00  3.20247e-04  3.60414e+02  3.60063e+02  3.35041e+00  3.39576e+00  4.33937e-01 -2.95176e+02  1.08802e+02  1.13955e+06 -1.38796e+06  5.42881e+02  0.00000e+00 -2.47860e+05 -3.11839e+04 -2.79044e+05  4.33951e-01  1.00000e+00  2.95685e+02  0.00000e+00  6.06843e+01 
 1.02653e-02  9.19555e-03  0.00000e+00  3.47944e+00  2.68971e-04  3.60604e+02  3.60064e+02  2.98117e+00  3.01968e+00  4.41975e-01 -6.08576e+02  1.29546e+02  1.78386e+06 -2.13524e+06  5.70257e+02  0.00000e+00 -3.50811e+05 -7.51110e+04 -4.25922e+05  4.41983e-01  1.00000e+00  6.09232e+02  0.00000e+00  1.00608e+02 
 1.04795e-02  9.43408e-03  0.00000e+00  3.47944e+00  2.09692e-04  3.61160e+02  3.60066e+02  2.48164e+00  2.50465e+00  4.52673e-01 -5.35286e+03  1.66172e+02  3.65653e+06 -3.58120e+06  6.27775e+02  1.60213e+06  1.67809e+06 -1.67999e+06 -1.90697e+03  4.52693e-01  1.00000e+00  5.35379e+03  3.48723e+03  2.55199e+02 
