# Code_Saturne plot output (1D profile)
#
# Iteration output: 3086
# Time output:      2.30011e+01
#
#COLUMN_TITLES: Distance | X | Y | Z | diameter_Field2 | temp_Field1 | temp_Field2 | Velocity_Field1[Z] | Velocity_Field2[Z] | vol_f_Field2 | mass_trans_Field1 | Xd_Field2 | BK | COAL | COMP | NUCL | W1 | MT | SMBR | ALPBB | CONDNUM | GAMA | GAMANUC | epsilon_Field1
 4.56474e-03  1.39645e-04  0.00000e+00  3.47944e+00  1.00000e-05  3.56516e+02  3.60048e+02  3.65791e+00  3.65832e+00  4.47073e-17  1.93679e-09  3.48631e+03  0.00000e+00 -4.81440e-06  1.03808e+04  0.00000e+00  1.03808e+04  2.60954e+00 -1.07474e+05  1.24587e-14  1.24587e-08 -1.93679e-09  0.00000e+00  2.29123e-01 
 4.57812e-03  3.76525e-04  4.25872e-21  3.47944e+00  1.00000e-05  3.56523e+02  3.60048e+02  3.65723e+00  3.65764e+00  2.79667e-17  2.07899e-09  3.48631e+03  0.00000e+00 -5.16568e-06  1.03935e+04  0.00000e+00  1.03935e+04  2.80113e+00 -1.01357e+05  1.33292e-14  1.33292e-08 -2.07899e-09  0.00000e+00  2.31137e-01 
 4.60371e-03  6.13858e-04  0.00000e+00  3.47944e+00  1.00000e-05  3.56536e+02  3.60048e+02  3.65598e+00  3.65640e+00  8.07429e-17  1.99077e-09  3.48631e+03  0.00000e+00 -5.00647e-06  1.03707e+04  0.00000e+00  1.03707e+04  2.68226e+00 -1.04708e+05  1.28459e-14  1.28459e-08 -1.99077e-09  0.00000e+00  2.35121e-01 
 4.64138e-03  8.51483e-04  0.00000e+00  3.47944e+00  1.00000e-05  3.56555e+02  3.60048e+02  3.65377e+00  3.65418e+00  6.47630e-17  1.64671e-09  3.48631e+03  0.00000e+00 -4.17982e-06  3.84293e+03  0.00000e+00  3.84293e+03  2.21870e+00 -1.26756e+05  1.06362e-14  1.06362e-08 -1.64671e-09  0.00000e+00  2.41119e-01 
 4.69084e-03  1.08931e-03  0.00000e+00  3.47944e+00  1.00000e-05  3.56581e+02  3.60048e+02  3.65094e+00  3.65135e+00  6.15382e-17  1.62149e-09  3.48631e+03  0.00000e+00 -4.15316e-06  8.81757e+03  0.00000e+00  8.81757e+03  2.18471e+00 -1.26036e+05  1.04542e-14  1.04542e-08 -1.62149e-09  0.00000e+00  2.49199e-01 
 4.75174e-03  1.32727e-03  1.05001e-20  3.47944e+00  1.00000e-05  3.56612e+02  3.60048e+02  3.64741e+00  3.64782e+00  1.13021e-16  2.04429e-09  3.48631e+03  0.00000e+00 -5.32254e-06  9.50117e+03  0.00000e+00  9.50117e+03  2.75438e+00 -9.91677e+04  1.32209e-14  1.32209e-08 -2.04429e-09  0.00000e+00  2.59466e-01 
 4.82366e-03  1.56534e-03  0.00000e+00  3.47944e+00  1.00000e-05  3.56651e+02  3.60048e+02  3.64322e+00  3.64363e+00  2.62213e-16  1.86740e-09  3.48631e+03  0.00000e+00 -4.89783e-06  8.44102e+03  0.00000e+00  8.44102e+03  2.51605e+00 -1.10302e+05  1.19778e-14  1.19778e-08 -1.86740e-09  0.00000e+00  2.72045e-01 
 4.90611e-03  1.80349e-03  8.81027e-21  3.47944e+00  1.00000e-05  3.56696e+02  3.60048e+02  3.63806e+00  3.63847e+00  2.79882e-15  8.27908e-10  3.48631e+03  0.00000e+00 -2.21032e-06  7.05315e+03  0.00000e+00  7.05315e+03  1.11549e+00 -2.80099e+05  5.31069e-15  5.31069e-09 -8.27909e-10  0.00000e+00  2.87056e-01 
 4.99859e-03  2.04170e-03  0.00000e+00  3.47944e+00  1.00000e-05  3.56747e+02  3.60048e+02  3.63228e+00  3.63269e+00  3.24414e-14  6.88857e-09  3.48632e+03  0.00000e+00 -1.88179e-05  7.07816e+03  0.00000e+00  7.07816e+03  9.28136e+00 -3.39528e+04  4.43374e-14  4.43374e-08 -6.88857e-09  0.00000e+00  3.04643e-01 
 5.10055e-03  2.27996e-03  7.58893e-21  3.47944e+00  1.00000e-05  3.56804e+02  3.60048e+02  3.62578e+00  3.62610e+00  3.77309e-13  7.62636e-08  3.48632e+03  0.00000e+00 -2.14148e-04  7.14300e+03  0.00000e+00  7.14300e+03  1.02754e+02 -3.04806e+03  4.93943e-13  4.93943e-07 -7.62636e-08  0.00000e+00  3.24998e-01 
 5.21143e-03  2.51826e-03  7.09702e-21  3.47944e+00  1.00000e-05  3.56868e+02  3.60048e+02  3.61861e+00  3.61881e+00  4.62440e-12  9.08646e-07  3.48632e+03  0.00000e+00 -2.58989e-03  6.88320e+03  0.00000e+00  6.88319e+03  1.22427e+03 -2.44018e+02  5.83910e-12  5.83910e-06 -9.08646e-07  0.00000e+00  3.48328e-01 
 5.33068e-03  2.75659e-03  1.33300e-20  3.47944e+00  1.00000e-05  3.56938e+02  3.60048e+02  3.61042e+00  3.61058e+00  5.87753e-11  1.10327e-05  3.48632e+03  0.00000e+00 -3.23711e-02  7.01019e+03  0.00000e+00  7.01015e+03  1.48870e+04 -6.10799e+00  7.12446e-11  7.12446e-05 -1.10490e-05  0.00000e+00  3.74826e-01 
 5.45775e-03  2.99495e-03  1.25651e-20  3.47944e+00  1.00000e-05  3.57015e+02  3.60048e+02  3.60112e+00  3.60127e+00  7.28192e-10  1.31195e-04  3.48632e+03 9.25803e-280 -3.98234e-01  7.97885e+03  0.00000e+00  7.97845e+03  1.77080e+05  1.85059e+05  8.54642e-10  8.54642e-04 -1.31428e-04  0.00000e+00  4.04691e-01 
 5.59212e-03  3.23333e-03  0.00000e+00  3.47944e+00  1.00000e-05  3.57097e+02  3.60047e+02  3.59100e+00  3.59115e+00  8.85069e-09  1.52376e-03  3.48627e+03 6.34453e-265 -4.79337e+00  7.44030e+03  0.00000e+00  7.43551e+03  2.05680e+06  2.06424e+06  1.00221e-08  1.00221e-02 -1.52657e-03  0.00000e+00  4.38122e-01 
 5.73326e-03  3.47172e-03  0.00000e+00  3.47944e+00  1.00000e-05  3.57185e+02  3.60046e+02  3.58027e+00  3.58042e+00  1.04756e-07  1.69472e-02  3.48621e+03 2.10466e-250 -5.53535e+01  6.97035e+03  0.00000e+00  6.91500e+03  2.28767e+07  2.28836e+07  1.12659e-07  1.12659e-01 -1.69795e-02  0.00000e+00  4.75552e-01 
 5.88069e-03  3.71014e-03 -5.35987e-21  3.47944e+00  1.00000e-05  3.57280e+02  3.60046e+02  3.56878e+00  3.56891e+00  1.20000e-06  1.97101e-01  3.48620e+03 3.15286e-236 -6.39532e+02  6.72884e+03  0.00000e+00  6.08931e+03  2.10182e+08  2.10188e+08  1.26595e-06  1.00000e+00 -1.97489e-01  0.00000e+00  5.17539e-01 
 6.03395e-03  3.94857e-03  5.10973e-21  3.47944e+00  1.02717e-05  3.57379e+02  3.60046e+02  3.55612e+00  3.55626e+00  1.25324e-05  2.03601e+00  3.39398e+03 3.18912e-203 -6.26134e+03  6.60359e+03  0.00000e+00  3.42245e+02  1.98563e+08  1.98563e+08  1.31436e-05  1.00000e+00 -2.04017e+00  0.00000e+00  5.64333e-01 
 6.19261e-03  4.18701e-03  0.00000e+00  3.47944e+00  1.49444e-05  3.57484e+02  3.60046e+02  3.54249e+00  3.54276e+00  7.97630e-05  1.23253e+01  2.33278e+03 6.33135e-100 -2.18819e+04  5.18402e+03  0.00000e+00 -1.66979e+04  1.34041e+08  1.34024e+08  8.20643e-05  1.00000e+00 -1.23515e+01  0.00000e+00  6.16483e-01 
 6.35626e-03  4.42546e-03  0.00000e+00  3.47944e+00  2.15891e-05  3.57594e+02  3.60046e+02  3.52807e+00  3.52863e+00  3.38273e-04  3.26190e+01  1.61480e+03  1.07748e-47 -5.09847e+04  4.26527e+03  0.00000e+00 -4.67194e+04  6.06177e+07  6.05710e+07  3.37216e-04  1.00000e+00 -3.26916e+01  0.00000e+00  6.74817e-01 
 6.52453e-03  4.66392e-03 -8.96437e-21  3.47944e+00  2.91311e-05  3.57710e+02  3.60046e+02  3.51276e+00  3.51384e+00  9.30018e-04  5.52323e+01  1.19673e+03  2.01487e-23 -8.69139e+04  3.26628e+03  0.00000e+00 -8.36477e+04  2.76563e+07  2.75727e+07  9.27219e-04  1.00000e+00 -5.53611e+01  0.00000e+00  7.40133e-01 
 6.69707e-03  4.90238e-03  1.72236e-20  3.47944e+00  3.69283e-05  3.57830e+02  3.60046e+02  3.49638e+00  3.49821e+00  1.83098e-03  7.21313e+01  9.44052e+02  9.27286e-12 -1.17930e+05  2.60341e+03  0.00000e+00 -1.15327e+05  1.44675e+07  1.43521e+07  1.82614e-03  1.00000e+00 -7.23085e+01  0.00000e+00  8.13597e-01 
 6.87356e-03  5.14086e-03  8.28595e-21  3.47944e+00  4.44196e-05  3.57952e+02  3.60046e+02  3.47899e+00  3.48175e+00  3.01299e-03  8.37057e+01  7.84839e+02  1.22427e-05 -1.46186e+05  2.16195e+03  0.00000e+00 -1.44024e+05  8.47946e+06  8.33544e+06  3.00605e-03  1.00000e+00 -8.39231e+01  0.00000e+00  8.96878e-01 
 7.05370e-03  5.37934e-03 -1.59677e-20  3.47944e+00  5.13613e-05  3.58077e+02  3.60046e+02  3.46039e+00  3.46421e+00  4.63021e-03  9.41691e+01  6.78766e+02  4.10451e-02 -1.81093e+05  1.86392e+03  0.00000e+00 -1.79229e+05  5.36682e+06  5.18759e+06  4.62134e-03  1.00000e+00 -9.44292e+01  0.00000e+00  9.92333e-01 
 7.23722e-03  5.61783e-03  0.00000e+00  3.47944e+00  5.78126e-05  3.58206e+02  3.60046e+02  3.44040e+00  3.44521e+00  6.93695e-03  1.08879e+02  6.03023e+02  6.92412e+00 -2.29166e+05  1.65287e+03  0.00000e+00 -2.27507e+05  3.67908e+06  3.45158e+06  6.92531e-03  1.00000e+00 -1.09201e+02  0.00000e+00  1.10322e+00 
 7.42387e-03  5.85632e-03  0.00000e+00  3.47944e+00  6.40755e-05  3.58339e+02  3.60046e+02  3.41878e+00  3.42454e+00  1.00986e-02  1.25336e+02  5.44082e+02  2.38040e+02 -2.89742e+05  1.48639e+03  0.00000e+00 -2.88018e+05  2.62475e+06  2.33673e+06  1.00836e-02  1.00000e+00 -1.25735e+02  0.00000e+00  1.23370e+00 
 7.61342e-03  6.09482e-03  0.00000e+00  3.47944e+00  7.01642e-05  3.58474e+02  3.60046e+02  3.39507e+00  3.40175e+00  1.43282e-02  1.43324e+02  4.96869e+02  2.95784e+03 -3.65022e+05  1.35243e+03  0.00000e+00 -3.60711e+05  1.93198e+06  1.57127e+06  1.43087e-02  1.00000e+00 -1.43819e+02  0.00000e+00  1.38777e+00 
 7.80566e-03  6.33332e-03  0.00000e+00  3.47944e+00  7.59523e-05  3.58613e+02  3.60046e+02  3.36939e+00  3.37689e+00  1.98838e-02  1.62996e+02  4.59004e+02  1.83406e+04 -4.59675e+05  1.24236e+03  0.00000e+00 -4.40092e+05  1.46282e+06  1.02273e+06  1.98589e-02  1.00000e+00 -1.63612e+02  0.00000e+00  1.57271e+00 
 8.00039e-03  6.57182e-03  0.00000e+00  3.47944e+00  8.12356e-05  3.58754e+02  3.60046e+02  3.34069e+00  3.34890e+00  2.70970e-02  1.84628e+02  4.29153e+02  6.94318e+04 -5.81658e+05  1.15462e+03  0.00000e+00 -5.11071e+05  1.13709e+06  6.26021e+05  2.70653e-02  1.00000e+00 -1.85400e+02  0.00000e+00  1.79709e+00 
 8.19744e-03  6.81033e-03  1.31016e-20  3.47944e+00  8.57965e-05  3.58896e+02  3.60046e+02  3.30870e+00  3.31745e+00  3.63394e-02  2.08333e+02  4.06340e+02  1.85531e+05 -7.42274e+05  1.08497e+03  0.00000e+00 -5.55658e+05  9.06206e+05  3.50549e+05  3.63006e-02  1.00000e+00 -2.09310e+02  0.00000e+00  2.07325e+00 
 8.39664e-03  7.04884e-03  0.00000e+00  3.47944e+00  8.95174e-05  3.59038e+02  3.60046e+02  3.27278e+00  3.28184e+00  4.80098e-02  2.33431e+02  3.89450e+02  3.88874e+05 -9.55628e+05  1.03118e+03  0.00000e+00 -5.65723e+05  7.36996e+05  1.71274e+05  4.79620e-02  1.00000e+00 -2.34677e+02  0.00000e+00  2.41539e+00 
 8.59784e-03  7.28736e-03  0.00000e+00  3.47944e+00  9.24290e-05  3.59179e+02  3.60046e+02  3.23079e+00  3.24001e+00  6.25745e-02  2.58723e+02  3.77183e+02  6.93719e+05 -1.23998e+06  9.88430e+02  0.00000e+00 -5.45274e+05  6.07410e+05  6.21364e+04  6.25175e-02  1.00000e+00 -2.60321e+02  0.00000e+00  2.84638e+00 
 8.80092e-03  7.52587e-03  0.00000e+00  3.47944e+00  9.46790e-05  3.59316e+02  3.60046e+02  3.18349e+00  3.19294e+00  8.04177e-02  2.74773e+02  3.68221e+02  1.10873e+06 -1.61368e+06  9.53134e+02  0.00000e+00 -5.03998e+05  4.90530e+05 -1.34683e+04  8.03485e-02  1.00000e+00 -2.76778e+02  0.00000e+00  3.39304e+00 
 9.00573e-03  7.76439e-03 -1.17014e-20  3.47944e+00  9.63624e-05  3.59447e+02  3.60047e+02  3.12935e+00  3.13855e+00  1.02005e-01  2.83229e+02  3.61789e+02  1.65187e+06 -2.10614e+06  9.19669e+02  0.00000e+00 -4.53356e+05  3.92197e+05 -6.11592e+04  1.01927e-01  1.00000e+00 -2.85731e+02  0.00000e+00  4.11225e+00 
 9.21216e-03  8.00291e-03  0.00000e+00  3.47944e+00  9.76007e-05  3.59571e+02  3.60047e+02  3.06245e+00  3.07159e+00  1.27006e-01  2.78905e+02  3.57200e+02  2.32527e+06 -2.73204e+06  8.88919e+02  0.00000e+00 -4.05884e+05  3.06875e+05 -9.90097e+04  1.26919e-01  1.00000e+00 -2.81985e+02  0.00000e+00  5.05576e+00 
 9.42012e-03  8.24144e-03  0.00000e+00  3.47944e+00  9.84211e-05  3.59686e+02  3.60047e+02  2.98638e+00  2.99509e+00  1.55846e-01  2.60078e+02  3.54224e+02  3.15566e+06 -3.54051e+06  8.57145e+02  0.00000e+00 -3.83994e+05  2.31987e+05 -1.52007e+05  1.55756e-01  1.00000e+00 -2.63828e+02  0.00000e+00  6.34811e+00 
 9.62949e-03  8.47996e-03  0.00000e+00  3.47944e+00  9.86284e-05  3.59791e+02  3.60047e+02  2.88822e+00  2.89652e+00  1.87104e-01  2.22787e+02  3.53481e+02  4.16739e+06 -4.56812e+06  8.26962e+02  0.00000e+00 -3.99908e+05  1.66077e+05 -2.33831e+05  1.87016e-01  1.00000e+00 -2.27278e+02  0.00000e+00  8.16132e+00 
 9.84019e-03  8.71849e-03  0.00000e+00  3.47944e+00  9.77830e-05  3.59890e+02  3.60047e+02  2.77527e+00  2.78280e+00  2.20998e-01  1.65418e+02  3.56539e+02  5.49973e+06 -5.98103e+06  7.96529e+02  0.00000e+00 -4.80504e+05  1.06542e+05 -3.73963e+05  2.20907e-01  1.00000e+00 -1.70771e+02  0.00000e+00  1.09627e+01 
 1.00521e-02  8.95702e-03  0.00000e+00  3.47944e+00  9.49575e-05  3.59987e+02  3.60048e+02  2.61482e+00  2.62160e+00  2.54333e-01  7.52145e+01  3.67150e+02  7.45220e+06 -8.05334e+06  7.70396e+02  0.00000e+00 -6.00372e+05  4.55426e+04 -5.54830e+05  2.54222e-01  1.00000e+00 -8.15904e+01  0.00000e+00  1.56974e+01 
 1.02653e-02  9.19555e-03  0.00000e+00  3.47944e+00  8.95158e-05  3.60109e+02  3.60048e+02  2.41100e+00  2.41615e+00  2.89163e-01 -2.05597e+02  3.89472e+02  1.12558e+07 -1.17981e+07  7.41320e+02  0.00000e+00 -5.41503e+05 -9.97041e+04 -6.41207e+05  2.88983e-01  1.00000e+00  1.91412e+02  0.00000e+00  2.63477e+01 
 1.04795e-02  9.43408e-03  0.00000e+00  3.47944e+00  8.28499e-05  3.60416e+02  3.60049e+02  2.02785e+00  2.03053e+00  3.32007e-01 -4.39657e+03  4.20813e+02  2.13509e+07 -1.99264e+07  7.10647e+02  2.83730e+06  4.26251e+06 -4.49877e+06 -2.36256e+05  3.31798e-01  1.00000e+00  4.37970e+03  2.78139e+03  6.55245e+01 
