# Code_Saturne plot output (1D profile)
#
# Iteration output: 4217
# Time output:      2.30003e+01
#
#COLUMN_TITLES: Distance | X | Y | Z | diameter_Field2 | temp_Field1 | temp_Field2 | Velocity_Field1[Z] | Velocity_Field2[Z] | vol_f_Field2 | mass_trans_Field1 | Xd_Field2 | BK | COAL | COMP | NUCL | W1 | MT | SMBR | ALPBB | CONDNUM | GAMA | GAMANUC | epsilon_Field1
 4.56474e-03  1.39645e-04  0.00000e+00  3.47944e+00  5.35931e-05  3.59801e+02  3.60054e+02  4.76953e+00  4.77743e+00  6.67185e-02  1.32227e+02  6.50200e+02  7.12899e-10 -2.26182e+06  3.97074e+03  0.00000e+00 -2.25785e+06  7.27108e+05 -1.53074e+06  6.67114e-02  1.00000e+00 -1.32919e+02  0.00000e+00  3.89126e-01 
 4.57812e-03  3.76525e-04  4.25872e-21  3.47944e+00  8.51124e-05  3.59800e+02  3.60054e+02  4.76948e+00  4.78468e+00  6.77402e-02  7.08955e+01  4.09414e+02  1.15369e+00 -1.04685e+06  2.50124e+03  0.00000e+00 -1.04435e+06  2.41728e+05 -8.02621e+05  6.77394e-02  1.00000e+00 -7.12705e+01  0.00000e+00  3.94203e-01 
 4.60371e-03  6.13858e-04  0.00000e+00  3.47944e+00  1.11419e-04  3.59801e+02  3.60053e+02  4.76842e+00  4.78989e+00  6.95601e-02  5.05394e+01  3.12749e+02  5.38523e+02 -6.82826e+05  1.91242e+03  0.00000e+00 -6.80375e+05  1.28189e+05 -5.52186e+05  6.95618e-02  1.00000e+00 -5.08084e+01  0.00000e+00  4.04135e-01 
 4.64138e-03  8.51483e-04  0.00000e+00  3.47944e+00  1.33046e-04  3.59803e+02  3.60053e+02  4.76677e+00  4.79333e+00  7.21397e-02  4.11544e+01  2.61911e+02  7.31107e+03 -5.28000e+05  1.60272e+03  0.00000e+00 -5.19086e+05  8.42994e+04 -4.34787e+05  7.21374e-02  1.00000e+00 -4.13755e+01  0.00000e+00  4.19093e-01 
 4.69084e-03  1.08931e-03  0.00000e+00  3.47944e+00  1.50843e-04  3.59806e+02  3.60053e+02  4.76445e+00  4.79512e+00  7.55184e-02  3.61217e+01  2.31010e+02  2.87769e+04 -4.51896e+05  1.41430e+03  0.00000e+00 -4.21705e+05  6.23481e+04 -3.59357e+05  7.55140e-02  1.00000e+00 -3.63187e+01  0.00000e+00  4.39408e-01 
 4.75174e-03  1.32727e-03  1.05001e-20  3.47944e+00  1.64900e-04  3.59812e+02  3.60053e+02  4.76148e+00  4.79529e+00  7.97429e-02  3.33969e+01  2.11316e+02  6.44860e+04 -4.16644e+05  1.29389e+03  0.00000e+00 -3.50864e+05  4.99426e+04 -3.00922e+05  7.97392e-02  1.00000e+00 -3.35830e+01  0.00000e+00  4.65567e-01 
 4.82366e-03  1.56534e-03  0.00000e+00  3.47944e+00  1.75404e-04  3.59819e+02  3.60053e+02  4.75780e+00  4.79384e+00  8.48542e-02  3.20732e+01  1.98662e+02  1.08505e+05 -4.06971e+05  1.21618e+03  0.00000e+00 -2.97251e+05  4.23824e+04 -2.54868e+05  8.48488e-02  1.00000e+00 -3.22570e+01  0.00000e+00  4.98204e-01 
 4.90611e-03  1.80349e-03  8.81027e-21  3.47944e+00  1.82863e-04  3.59827e+02  3.60053e+02  4.75337e+00  4.79086e+00  9.09005e-02  3.16362e+01  1.90558e+02  1.56822e+05 -4.15472e+05  1.16595e+03  0.00000e+00 -2.57484e+05  3.74413e+04 -2.20043e+05  9.08923e-02  1.00000e+00 -3.18241e+01  0.00000e+00  5.38146e-01 
 4.99859e-03  2.04170e-03  0.00000e+00  3.47944e+00  1.87945e-04  3.59837e+02  3.60053e+02  4.74808e+00  4.78657e+00  9.79203e-02  3.17591e+01  1.85406e+02  2.08610e+05 -4.38273e+05  1.13413e+03  0.00000e+00 -2.28530e+05  3.39579e+04 -1.94572e+05  9.79105e-02  1.00000e+00 -3.19559e+01  0.00000e+00  5.86388e-01 
 5.10055e-03  2.27996e-03  7.58893e-21  3.47944e+00  1.91284e-04  3.59849e+02  3.60053e+02  4.74543e+00  4.78599e+00  1.05913e-01  3.22434e+01  1.82170e+02  2.65226e+05 -4.73418e+05  1.11005e+03  0.00000e+00 -2.07082e+05  3.13268e+04 -1.75755e+05  1.05905e-01  1.00000e+00 -3.24536e+01  0.00000e+00  6.44640e-01 
 5.21143e-03  2.51826e-03  7.09702e-21  3.47944e+00  1.93405e-04  3.59861e+02  3.60053e+02  4.74084e+00  4.78251e+00  1.14944e-01  3.28535e+01  1.80172e+02  3.28617e+05 -5.20320e+05  1.09409e+03  0.00000e+00 -1.90609e+05  2.90996e+04 -1.61509e+05  1.14939e-01  1.00000e+00 -3.30807e+01  0.00000e+00  7.14854e-01 
 5.33068e-03  2.75659e-03  1.33300e-20  3.47944e+00  1.94716e-04  3.59875e+02  3.60053e+02  4.73240e+00  4.77382e+00  1.25052e-01  3.34401e+01  1.78959e+02  3.99826e+05 -5.78721e+05  1.08518e+03  0.00000e+00 -1.77810e+05  2.70539e+04 -1.50756e+05  1.25050e-01  1.00000e+00 -3.36874e+01  0.00000e+00  7.98284e-01 
 5.45775e-03  2.99495e-03  1.25651e-20  3.47944e+00  1.95514e-04  3.59889e+02  3.60053e+02  4.72253e+00  4.76349e+00  1.36157e-01  3.38941e+01  1.78228e+02  4.79693e+05 -6.48221e+05  1.07903e+03  0.00000e+00 -1.67449e+05  2.50960e+04 -1.42353e+05  1.36157e-01  1.00000e+00 -3.41644e+01  0.00000e+00  8.96531e-01 
 5.59212e-03  3.23333e-03  0.00000e+00  3.47944e+00  1.96027e-04  3.59903e+02  3.60053e+02  4.71105e+00  4.75142e+00  1.48229e-01  3.41158e+01  1.77762e+02  5.69092e+05 -7.28887e+05  1.07435e+03  0.00000e+00 -1.58720e+05  2.31583e+04 -1.35562e+05  1.48229e-01  1.00000e+00 -3.44118e+01  0.00000e+00  1.01201e+00 
 5.73326e-03  3.47172e-03  0.00000e+00  3.47944e+00  1.96423e-04  3.59918e+02  3.60053e+02  4.69779e+00  4.73749e+00  1.61169e-01  3.40114e+01  1.77404e+02  6.68375e+05 -8.20396e+05  1.07017e+03  0.00000e+00 -1.50951e+05  2.12088e+04 -1.29743e+05  1.61169e-01  1.00000e+00 -3.43353e+01  0.00000e+00  1.14741e+00 
 5.88069e-03  3.71014e-03 -5.35987e-21  3.47944e+00  1.96833e-04  3.59932e+02  3.60053e+02  4.68249e+00  4.72148e+00  1.74864e-01  3.35107e+01  1.77035e+02  7.77326e+05 -9.22147e+05  1.06556e+03  0.00000e+00 -1.43755e+05  1.92398e+04 -1.24515e+05  1.74861e-01  1.00000e+00 -3.38643e+01  0.00000e+00  1.30562e+00 
 6.03395e-03  3.94857e-03  5.10973e-21  3.47944e+00  1.97358e-04  3.59947e+02  3.60053e+02  4.66490e+00  4.70316e+00  1.89200e-01  3.25757e+01  1.76564e+02  8.95120e+05 -1.03327e+06  1.05995e+03  0.00000e+00 -1.37087e+05  1.72616e+04 -1.19825e+05  1.89194e-01  1.00000e+00 -3.29604e+01  0.00000e+00  1.48977e+00 
 6.19261e-03  4.18701e-03  0.00000e+00  3.47944e+00  1.98068e-04  3.59961e+02  3.60053e+02  4.64476e+00  4.68228e+00  2.03982e-01  3.11850e+01  1.75931e+02  1.02039e+06 -1.15215e+06  1.05288e+03  0.00000e+00 -1.30712e+05  1.52954e+04 -1.15417e+05  2.03976e-01  1.00000e+00 -3.16012e+01  0.00000e+00  1.70302e+00 
 6.35626e-03  4.42546e-03  0.00000e+00  3.47944e+00  1.99014e-04  3.59974e+02  3.60053e+02  4.62180e+00  4.65858e+00  2.19118e-01  2.93623e+01  1.75095e+02  1.15112e+06 -1.27734e+06  1.04400e+03  0.00000e+00 -1.25173e+05  1.33680e+04 -1.11805e+05  2.19111e-01  1.00000e+00 -2.98101e+01  0.00000e+00  1.94852e+00 
 6.52453e-03  4.66392e-03 -8.96437e-21  3.47944e+00  2.00205e-04  3.59986e+02  3.60053e+02  4.59580e+00  4.63186e+00  2.34353e-01  2.71443e+01  1.74054e+02  1.28589e+06 -1.40669e+06  1.03303e+03  0.00000e+00 -1.19764e+05  1.15131e+04 -1.08251e+05  2.34345e-01  1.00000e+00 -2.76229e+01  0.00000e+00  2.23059e+00 
 6.69707e-03  4.90238e-03  1.72236e-20  3.47944e+00  2.01637e-04  3.59998e+02  3.60053e+02  4.56653e+00  4.60190e+00  2.49530e-01  2.45982e+01  1.72818e+02  1.42176e+06 -1.53797e+06  1.02040e+03  0.00000e+00 -1.15182e+05  9.75803e+03 -1.05424e+05  2.49522e-01  1.00000e+00 -2.51066e+01  0.00000e+00  2.55119e+00 
 6.87356e-03  5.14086e-03  8.28595e-21  3.47944e+00  2.03258e-04  3.60009e+02  3.60053e+02  4.53385e+00  4.56854e+00  2.64396e-01  2.17995e+01  1.71440e+02  1.55764e+06 -1.66928e+06  1.00599e+03  0.00000e+00 -1.10635e+05  8.12760e+03 -1.02508e+05  2.64391e-01  1.00000e+00 -2.23358e+01  0.00000e+00  2.91463e+00 
 7.05370e-03  5.37934e-03 -1.59677e-20  3.47944e+00  2.05010e-04  3.60019e+02  3.60053e+02  4.49768e+00  4.53171e+00  2.78824e-01  1.88467e+01  1.69976e+02  1.69214e+06 -1.79942e+06  9.90577e+02  0.00000e+00 -1.06292e+05  6.63991e+03 -9.96523e+04  2.78822e-01  1.00000e+00 -1.94093e+01  0.00000e+00  3.32429e+00 
 7.23722e-03  5.61783e-03  0.00000e+00  3.47944e+00  2.06801e-04  3.60028e+02  3.60054e+02  4.45792e+00  4.49131e+00  2.92764e-01  1.58240e+01  1.68504e+02  1.82509e+06 -1.92863e+06  9.74400e+02  0.00000e+00 -1.02566e+05  5.30058e+03 -9.72654e+04  2.92764e-01  1.00000e+00 -1.64112e+01  0.00000e+00  3.78546e+00 
 7.42387e-03  5.85632e-03  0.00000e+00  3.47944e+00  2.08534e-04  3.60036e+02  3.60054e+02  4.41453e+00  4.44728e+00  3.06124e-01  1.28090e+01  1.67104e+02  1.95700e+06 -2.05735e+06  9.58037e+02  0.00000e+00 -9.93832e+04  4.11067e+03 -9.52725e+04  3.06125e-01  1.00000e+00 -1.34194e+01  0.00000e+00  4.30393e+00 
 7.61342e-03  6.09482e-03  0.00000e+00  3.47944e+00  2.10080e-04  3.60043e+02  3.60054e+02  4.36742e+00  4.39950e+00  3.18922e-01  9.85727e+00  1.65875e+02  2.08980e+06 -2.18800e+06  9.41761e+02  0.00000e+00 -9.72546e+04  3.06174e+03 -9.41929e+04  3.18921e-01  1.00000e+00 -1.04900e+01  0.00000e+00  4.88920e+00 
 7.80566e-03  6.33332e-03  0.00000e+00  3.47944e+00  2.11324e-04  3.60050e+02  3.60054e+02  4.31637e+00  4.34777e+00  3.31115e-01  7.00509e+00  1.64899e+02  2.22555e+06 -2.32276e+06  9.26224e+02  0.00000e+00 -9.62763e+04  2.14075e+03 -9.41355e+04  3.31111e-01  1.00000e+00 -7.66001e+00  0.00000e+00  5.55077e+00 
 8.00039e-03  6.57182e-03  0.00000e+00  3.47944e+00  2.12106e-04  3.60056e+02  3.60054e+02  4.26124e+00  4.29189e+00  3.42712e-01  4.27088e+00  1.64292e+02  2.36891e+06 -2.46635e+06  9.11774e+02  0.00000e+00 -9.65300e+04  1.33123e+03 -9.51987e+04  3.42709e-01  1.00000e+00 -4.94846e+00  0.00000e+00  6.30680e+00 
 8.19744e-03  6.81033e-03  1.31016e-20  3.47944e+00  2.12315e-04  3.60062e+02  3.60054e+02  4.20141e+00  4.23124e+00  3.53748e-01  1.65345e+00  1.64131e+02  2.52377e+06 -2.62317e+06  8.98926e+02  0.00000e+00 -9.85051e+04  6.13205e+02 -9.78919e+04  3.53745e-01  1.00000e+00 -2.35512e+00  0.00000e+00  7.17552e+00 
 8.39664e-03  7.04884e-03  0.00000e+00  3.47944e+00  2.11768e-04  3.60066e+02  3.60055e+02  4.13677e+00  4.16567e+00  3.64259e-01 -8.61985e-01  1.64555e+02  2.69856e+06 -2.80164e+06  8.87909e+02  0.00000e+00 -1.02187e+05 -3.38839e+01 -1.02221e+05  3.64256e-01  1.00000e+00  1.33659e-01  0.00000e+00  8.19363e+00 
 8.59784e-03  7.28736e-03  0.00000e+00  3.47944e+00  2.10375e-04  3.60071e+02  3.60055e+02  4.06557e+00  4.09343e+00  3.74321e-01 -7.22149e+00  1.65646e+02  2.89972e+06 -3.00914e+06  8.79136e+02  0.00000e+00 -1.08539e+05 -1.40356e+03 -1.09942e+05  3.74310e-01  1.00000e+00  5.65178e+00  0.00000e+00  9.39728e+00 
 8.80092e-03  7.52587e-03  0.00000e+00  3.47944e+00  2.07898e-04  3.60075e+02  3.60055e+02  3.98873e+00  4.01537e+00  3.84025e-01 -1.27865e+01  1.67620e+02  3.14255e+06 -3.26198e+06  8.73092e+02  0.00000e+00 -1.18554e+05 -2.73072e+03 -1.21284e+05  3.84011e-01  1.00000e+00  1.11480e+01  0.00000e+00  1.08636e+01 
 9.00573e-03  7.76439e-03 -1.17014e-20  3.47944e+00  2.04194e-04  3.60079e+02  3.60055e+02  3.90078e+00  3.92607e+00  3.93429e-01 -1.91578e+01  1.70662e+02  3.44228e+06 -3.57743e+06  8.69630e+02  0.00000e+00 -1.34283e+05 -4.24478e+03 -1.38528e+05  3.93411e-01  1.00000e+00  1.74370e+01  0.00000e+00  1.26792e+01 
 9.21216e-03  8.00291e-03  0.00000e+00  3.47944e+00  1.98915e-04  3.60084e+02  3.60056e+02  3.80704e+00  3.83079e+00  4.02631e-01 -2.73556e+01  1.75193e+02  3.83495e+06 -3.99303e+06  8.70243e+02  0.00000e+00 -1.57213e+05 -6.23447e+03 -1.63448e+05  4.02614e-01  1.00000e+00  2.55317e+01  0.00000e+00  1.50422e+01 
 9.42012e-03  8.24144e-03  0.00000e+00  3.47944e+00  1.91896e-04  3.60090e+02  3.60056e+02  3.69109e+00  3.71307e+00  4.11807e-01 -3.94310e+01  1.81603e+02  4.35713e+06 -4.55395e+06  8.74779e+02  0.00000e+00 -1.95947e+05 -9.27479e+03 -2.05222e+05  4.11789e-01  1.00000e+00  3.74771e+01  0.00000e+00  1.81738e+01 
 9.62949e-03  8.47996e-03  0.00000e+00  3.47944e+00  1.82495e-04  3.60099e+02  3.60057e+02  3.56671e+00  3.58619e+00  4.20915e-01 -5.98957e+01  1.90959e+02  5.11782e+06 -5.37145e+06  8.88293e+02  0.00000e+00 -2.52740e+05 -1.47074e+04 -2.67447e+05  4.20896e-01  1.00000e+00  5.77674e+01  0.00000e+00  2.26986e+01 
 9.84019e-03  8.71849e-03  0.00000e+00  3.47944e+00  1.70373e-04  3.60116e+02  3.60057e+02  3.39517e+00  3.41250e+00  4.30064e-01 -1.00408e+02  2.04548e+02  6.26290e+06 -6.61818e+06  9.06154e+02  0.00000e+00 -3.54378e+05 -2.61692e+04 -3.80547e+05  4.30043e-01  1.00000e+00  9.80426e+01  0.00000e+00  2.94601e+01 
 1.00521e-02  8.95702e-03  0.00000e+00  3.47944e+00  1.54185e-04  3.60149e+02  3.60058e+02  3.21192e+00  3.22713e+00  4.39474e-01 -1.99216e+02  2.26026e+02  8.32441e+06 -8.82483e+06  9.39430e+02  0.00000e+00 -4.99481e+05 -5.67141e+04 -5.56196e+05  4.39452e-01  1.00000e+00  1.96492e+02  0.00000e+00  4.18488e+01 
 1.02653e-02  9.19555e-03  0.00000e+00  3.47944e+00  1.33523e-04  3.60239e+02  3.60059e+02  2.89895e+00  2.91198e+00  4.49368e-01 -5.22899e+02  2.61006e+02  1.25610e+07 -1.31986e+07  9.71195e+02  0.00000e+00 -6.36662e+05 -1.69363e+05 -8.06025e+05  4.49341e-01  1.00000e+00  5.19617e+02  0.00000e+00  6.90678e+01 
 1.04795e-02  9.43408e-03  0.00000e+00  3.47944e+00  1.09203e-04  3.60613e+02  3.60060e+02  2.44180e+00  2.44922e+00  4.63250e-01 -5.65273e+03  3.19138e+02  2.46391e+07 -2.35471e+07  1.03446e+03  2.52129e+06  3.61433e+06 -3.71719e+06 -1.02862e+05  4.63234e-01  1.00000e+00  5.64854e+03  3.33902e+03  1.73404e+02 
