# Code_Saturne plot output (1D profile)
#
# Iteration output: 3066
# Time output:      2.30003e+01
#
#COLUMN_TITLES: Distance | X | Y | Z | diameter_Field2 | temp_Field1 | temp_Field2 | Velocity_Field1[Z] | Velocity_Field2[Z] | vol_f_Field2 | mass_trans_Field1 | Xd_Field2 | BK | COAL | COMP | NUCL | W1 | MT | SMBR | ALPBB | CONDNUM | GAMA | GAMANUC | epsilon_Field1
 4.56474e-03  1.39645e-04  0.00000e+00  3.47944e+00  1.00000e-05  3.57835e+02  3.60050e+02  3.88321e+00  3.88313e+00  1.45203e-11  3.31301e-06  3.48600e+03 2.27705e-261 -1.69057e-02  8.46127e+03  0.00000e+00  8.46125e+03  7.08020e+03 -3.56165e+01  1.93130e-11  1.93130e-05 -3.31351e-06  0.00000e+00  4.51374e-01 
 4.57812e-03  3.76525e-04  4.25872e-21  3.47944e+00  1.00000e-05  3.57840e+02  3.60050e+02  3.88270e+00  3.88268e+00  8.38063e-11  1.88846e-05  3.48600e+03 7.32494e-260 -9.61042e-02  8.53563e+03  0.00000e+00  8.53554e+03  4.03671e+04  4.89026e+04  1.09487e-10  1.09487e-04 -1.88917e-05  0.00000e+00  4.55176e-01 
 4.60371e-03  6.13858e-04  0.00000e+00  3.47944e+00  1.00000e-05  3.57850e+02  3.60050e+02  3.88106e+00  3.88107e+00  7.32962e-10  1.65384e-04  3.48600e+03 5.96826e-257 -8.32335e-01  9.74310e+03  0.00000e+00  9.74227e+03  3.53532e+05  3.63274e+05  9.43170e-10  9.43170e-04 -1.65452e-04  0.00000e+00  4.62671e-01 
 4.64138e-03  8.51483e-04  0.00000e+00  3.47944e+00  1.00000e-05  3.57865e+02  3.60049e+02  3.87866e+00  3.87867e+00  7.23270e-09  1.55840e-03  3.48594e+03 1.04285e-252 -7.88532e+00  9.48349e+03  0.00000e+00  9.47561e+03  3.33128e+06  3.34075e+06  8.86481e-09  8.86481e-03 -1.55905e-03  0.00000e+00  4.73969e-01 
 4.69084e-03  1.08931e-03  0.00000e+00  3.47944e+00  1.00000e-05  3.57885e+02  3.60048e+02  3.87544e+00  3.87546e+00  7.45314e-08  1.54543e-02  3.48587e+03 3.00253e-247 -7.91570e+01  7.90469e+03  0.00000e+00  7.82553e+03  3.30350e+07  3.30428e+07  8.80701e-08  8.80701e-02 -1.54609e-02  0.00000e+00  4.89198e-01 
 4.75174e-03  1.32727e-03  1.05001e-20  3.47944e+00  1.00000e-05  3.57910e+02  3.60047e+02  3.87143e+00  3.87146e+00  7.82818e-07  1.55609e-01  3.48585e+03 1.04966e-240 -8.11014e+02  7.99346e+03  0.00000e+00  7.18244e+03  3.32627e+08  3.32634e+08  8.90909e-07  8.90909e-01 -1.55675e-01  0.00000e+00  5.08554e-01 
 4.82366e-03  1.56534e-03  0.00000e+00  3.47944e+00  1.00000e-05  3.57939e+02  3.60047e+02  3.86664e+00  3.86666e+00  8.25702e-06  1.53993e+00  3.48585e+03 3.08658e-233 -8.20119e+03  8.15175e+03  0.00000e+00 -4.94420e+01  3.70885e+08  3.70885e+08  8.87540e-06  1.00000e+00 -1.54059e+00  0.00000e+00  5.32253e-01 
 4.90611e-03  1.80349e-03  8.81027e-21  3.47944e+00  1.00000e-05  3.57972e+02  3.60047e+02  3.86107e+00  3.86109e+00  8.59891e-05  1.48006e+01  3.48585e+03 5.30127e-225 -8.16052e+04  8.32267e+03  0.00000e+00 -7.32825e+04  3.64398e+08  3.64325e+08  8.68228e-05  1.00000e+00 -1.48071e+01  0.00000e+00  5.60592e-01 
 4.99859e-03  2.04170e-03  0.00000e+00  3.47944e+00  1.62913e-05  3.58010e+02  3.60047e+02  3.85474e+00  3.85490e+00  4.74187e-04  5.80533e+01  2.13971e+03  2.60836e-90 -1.98845e+05  6.48731e+03  0.00000e+00 -1.92358e+05  1.60986e+08  1.60794e+08  4.72678e-04  1.00000e+00 -5.80793e+01  0.00000e+00  5.93900e-01 
 5.10055e-03  2.27996e-03  7.58893e-21  3.47944e+00  2.87515e-05  3.58050e+02  3.60047e+02  3.84767e+00  3.84850e+00  1.44145e-03  7.69484e+01  1.21241e+03  2.59871e-28 -2.37553e+05  4.73233e+03  0.00000e+00 -2.32820e+05  3.97489e+07  3.95161e+07  1.44036e-03  1.00000e+00 -7.69836e+01  0.00000e+00  6.32632e-01 
 5.21143e-03  2.51826e-03  7.09702e-21  3.47944e+00  4.29773e-05  3.58092e+02  3.60047e+02  3.83973e+00  3.84197e+00  2.56601e-03  7.24229e+01  8.11092e+02  6.47376e-10 -2.18497e+05  3.25728e+03  0.00000e+00 -2.15240e+05  1.40663e+07  1.38511e+07  2.56378e-03  1.00000e+00 -7.24566e+01  0.00000e+00  6.77279e-01 
 5.33068e-03  2.75659e-03  1.33300e-20  3.47944e+00  5.63828e-05  3.58137e+02  3.60047e+02  3.83079e+00  3.83508e+00  3.67756e-03  6.48593e+01  6.18249e+02  3.29792e-03 -2.01726e+05  2.48727e+03  0.00000e+00 -1.99239e+05  6.69943e+06  6.50019e+06  3.67461e-03  1.00000e+00 -6.48902e+01  0.00000e+00  7.28513e-01 
 5.45775e-03  2.99495e-03  1.25651e-20  3.47944e+00  6.80874e-05  3.58185e+02  3.60047e+02  3.82077e+00  3.82723e+00  4.95073e-03  6.18486e+01  5.11968e+02  3.57518e+00 -2.01550e+05  2.05432e+03  0.00000e+00 -1.99492e+05  3.92879e+06  3.72930e+06  4.94762e-03  1.00000e+00 -6.18789e+01  0.00000e+00  7.87161e-01 
 5.59212e-03  3.23333e-03  0.00000e+00  3.47944e+00  7.85748e-05  3.58237e+02  3.60047e+02  3.80955e+00  3.81791e+00  6.55903e-03  6.36070e+01  4.43636e+02  1.67802e+02 -2.14307e+05  1.78090e+03  0.00000e+00 -2.12359e+05  2.64226e+06  2.42990e+06  6.55550e-03  1.00000e+00 -6.36390e+01  0.00000e+00  8.54233e-01 
 5.73326e-03  3.47172e-03  0.00000e+00  3.47944e+00  8.87485e-05  3.58292e+02  3.60047e+02  3.79712e+00  3.80734e+00  8.52444e-03  6.65995e+01  3.92780e+02  1.97111e+03 -2.32110e+05  1.57559e+03  0.00000e+00 -2.28563e+05  1.88450e+06  1.65594e+06  8.52021e-03  1.00000e+00 -6.66340e+01  0.00000e+00  9.30773e-01 
 5.88069e-03  3.71014e-03 -5.35987e-21  3.47944e+00  9.89045e-05  3.58350e+02  3.60047e+02  3.78335e+00  3.79539e+00  1.09009e-02  7.03446e+01  3.52448e+02  1.05141e+04 -2.53317e+05  1.41158e+03  0.00000e+00 -2.41392e+05  1.39661e+06  1.15522e+06  1.08958e-02  1.00000e+00 -7.03823e+01  0.00000e+00  1.01800e+00 
 6.03395e-03  3.94857e-03  5.10973e-21  3.47944e+00  1.09075e-04  3.58410e+02  3.60047e+02  3.76819e+00  3.78198e+00  1.37373e-02  7.46424e+01  3.19585e+02  3.36871e+04 -2.77597e+05  1.27733e+03  0.00000e+00 -2.42633e+05  1.06625e+06  8.23613e+05  1.37313e-02  1.00000e+00 -7.46840e+01  0.00000e+00  1.11718e+00 
 6.19261e-03  4.18701e-03  0.00000e+00  3.47944e+00  1.19252e-04  3.58474e+02  3.60048e+02  3.75151e+00  3.76700e+00  1.71065e-02  7.94264e+01  2.92312e+02  7.66193e+04 -3.05324e+05  1.16504e+03  0.00000e+00 -2.27540e+05  8.33332e+05  6.05792e+05  1.70995e-02  1.00000e+00 -7.94724e+01  0.00000e+00  1.22989e+00 
 6.35626e-03  4.42546e-03  0.00000e+00  3.47944e+00  1.29503e-04  3.58539e+02  3.60048e+02  3.73321e+00  3.75033e+00  2.10669e-02  8.45071e+01  2.69173e+02  1.38049e+05 -3.36210e+05  1.06951e+03  0.00000e+00 -1.97091e+05  6.62945e+05  4.65853e+05  2.10588e-02  1.00000e+00 -8.45581e+01  0.00000e+00  1.35818e+00 
 6.52453e-03  4.66392e-03 -8.96437e-21  3.47944e+00  1.40022e-04  3.58607e+02  3.60048e+02  3.71313e+00  3.73187e+00  2.57101e-02  8.96681e+01  2.48953e+02  2.11930e+05 -3.69889e+05  9.85327e+02  0.00000e+00 -1.56973e+05  5.33079e+05  3.76105e+05  2.57009e-02  1.00000e+00 -8.97247e+01  0.00000e+00  1.50467e+00 
 6.69707e-03  4.90238e-03  1.72236e-20  3.47944e+00  1.51102e-04  3.58677e+02  3.60048e+02  3.69112e+00  3.71150e+00  3.10957e-02  9.45275e+01  2.30697e+02  2.90447e+05 -4.04842e+05  9.09231e+02  0.00000e+00 -1.13486e+05  4.30562e+05  3.17076e+05  3.10851e-02  1.00000e+00 -9.45903e+01  0.00000e+00  1.67215e+00 
 6.87356e-03  5.14086e-03  8.28595e-21  3.47944e+00  1.63104e-04  3.58748e+02  3.60048e+02  3.66700e+00  3.68911e+00  3.73345e-02  9.87702e+01  2.13722e+02  3.66195e+05 -4.39807e+05  8.38097e+02  0.00000e+00 -7.27741e+04  3.47134e+05  2.74360e+05  3.73226e-02  1.00000e+00 -9.88392e+01  0.00000e+00  1.86433e+00 
 7.05370e-03  5.37934e-03 -1.59677e-20  3.47944e+00  1.76388e-04  3.58820e+02  3.60048e+02  3.64052e+00  3.66452e+00  4.44637e-02  1.01950e+02  1.97627e+02  4.32897e+05 -4.72412e+05  7.70807e+02  0.00000e+00 -3.87449e+04  2.78200e+05  2.39455e+05  4.44506e-02  1.00000e+00 -1.02025e+02  0.00000e+00  2.08501e+00 
 7.23722e-03  5.61783e-03  0.00000e+00  3.47944e+00  1.91287e-04  3.58893e+02  3.60048e+02  3.61143e+00  3.63750e+00  5.25876e-02  1.03845e+02  1.82235e+02  4.86357e+05 -5.01305e+05  7.06156e+02  0.00000e+00 -1.42422e+04  2.20934e+05  2.06692e+05  5.25737e-02  1.00000e+00 -1.03927e+02  0.00000e+00  2.33972e+00 
 7.42387e-03  5.85632e-03  0.00000e+00  3.47944e+00  2.08031e-04  3.58967e+02  3.60048e+02  3.57939e+00  3.60781e+00  6.17199e-02  1.04226e+02  1.67567e+02  5.24254e+05 -5.24714e+05  6.44864e+02  0.00000e+00  1.85112e+02  1.73728e+05  1.73913e+05  6.17053e-02  1.00000e+00 -1.04314e+02  0.00000e+00  2.63366e+00 
 7.61342e-03  6.09482e-03  0.00000e+00  3.47944e+00  2.26706e-04  3.59042e+02  3.60048e+02  3.54413e+00  3.57517e+00  7.18984e-02  1.01676e+02  1.53764e+02  5.46729e+05 -5.42110e+05  5.86822e+02  0.00000e+00  5.20526e+03  1.33510e+05  1.38716e+05  7.18791e-02  1.00000e+00 -1.01768e+02  0.00000e+00  2.97519e+00 
 7.80566e-03  6.33332e-03  0.00000e+00  3.47944e+00  2.47060e-04  3.59118e+02  3.60048e+02  3.50512e+00  3.53904e+00  8.30432e-02  9.75035e+01  1.41096e+02  5.55516e+05 -5.53577e+05  5.33694e+02  0.00000e+00  2.47298e+03  1.01720e+05  1.04193e+05  8.30226e-02  1.00000e+00 -9.75985e+01  0.00000e+00  3.37142e+00 
 8.00039e-03  6.57182e-03  0.00000e+00  3.47944e+00  2.68562e-04  3.59195e+02  3.60048e+02  3.46208e+00  3.49876e+00  9.50353e-02  9.21052e+01  1.29800e+02  5.54335e+05 -5.60266e+05  4.85645e+02  0.00000e+00 -5.44610e+03  7.72438e+04  7.17977e+04  9.50135e-02  1.00000e+00 -9.22031e+01  0.00000e+00  3.83566e+00 
 8.19744e-03  6.81033e-03  1.31016e-20  3.47944e+00  2.90389e-04  3.59273e+02  3.60048e+02  3.41434e+00  3.45363e+00  1.07756e-01  8.58302e+01  1.20044e+02  5.47011e+05 -5.64076e+05  4.43870e+02  0.00000e+00 -1.66207e+04  5.87165e+04  4.20958e+04  1.07731e-01  1.00000e+00 -8.59305e+01  0.00000e+00  4.37838e+00 
 8.39664e-03  7.04884e-03  0.00000e+00  3.47944e+00  3.11417e-04  3.59354e+02  3.60049e+02  3.36189e+00  3.40373e+00  1.20891e-01  7.88999e+01  1.11939e+02  5.38499e+05 -5.67119e+05  4.07995e+02  0.00000e+00 -2.82119e+04  4.48661e+04  1.66541e+04  1.20865e-01  1.00000e+00 -7.90028e+01  0.00000e+00  5.02456e+00 
 8.59784e-03  7.28736e-03  0.00000e+00  3.47944e+00  3.30465e-04  3.59437e+02  3.60049e+02  3.30335e+00  3.34739e+00  1.34432e-01  7.15439e+01  1.05487e+02  5.32134e+05 -5.72748e+05  3.78495e+02  0.00000e+00 -4.02353e+04  3.44818e+04 -5.75356e+03  1.34402e-01  1.00000e+00 -7.16499e+01  0.00000e+00  5.79406e+00 
 8.80092e-03  7.52587e-03  0.00000e+00  3.47944e+00  3.46275e-04  3.59524e+02  3.60049e+02  3.23928e+00  3.28503e+00  1.47982e-01  6.36606e+01  1.00671e+02  5.32283e+05 -5.83474e+05  3.54300e+02  0.00000e+00 -5.08367e+04  2.66055e+04 -2.42312e+04  1.47951e-01  1.00000e+00 -6.37706e+01  0.00000e+00  6.74161e+00 
 9.00573e-03  7.76439e-03 -1.17014e-20  3.47944e+00  3.58016e-04  3.59616e+02  3.60049e+02  3.16583e+00  3.21269e+00  1.61702e-01  5.50237e+01  9.73700e+01  5.40734e+05 -6.02749e+05  3.35352e+02  0.00000e+00 -6.16797e+04  2.03616e+04 -4.13181e+04  1.61668e-01  1.00000e+00 -5.51390e+01  0.00000e+00  7.91367e+00 
 9.21216e-03  8.00291e-03  0.00000e+00  3.47944e+00  3.64868e-04  3.59715e+02  3.60049e+02  3.08597e+00  3.13293e+00  1.75388e-01  4.50226e+01  9.55418e+01  5.61928e+05 -6.34093e+05  3.20359e+02  0.00000e+00 -7.18442e+04  1.50807e+04 -5.67635e+04  1.75355e-01  1.00000e+00 -4.51448e+01  0.00000e+00  9.44701e+00 
 9.42012e-03  8.24144e-03  0.00000e+00  3.47944e+00  3.66647e-04  3.59824e+02  3.60050e+02  2.98792e+00  3.03460e+00  1.89263e-01  3.26484e+01  9.50788e+01  5.98034e+05 -6.81171e+05  3.08760e+02  0.00000e+00 -8.28287e+04  1.00981e+04 -7.27305e+04  1.89225e-01  1.00000e+00 -3.27800e+01  0.00000e+00  1.14811e+01 
 9.62949e-03  8.47996e-03  0.00000e+00  3.47944e+00  3.63010e-04  3.59948e+02  3.60050e+02  2.88276e+00  2.92876e+00  2.03242e-01  1.60613e+01  9.60319e+01  6.58054e+05 -7.49437e+05  2.99253e+02  0.00000e+00 -9.10830e+04  4.69539e+03 -8.63876e+04  2.03205e-01  1.00000e+00 -1.62056e+01  0.00000e+00  1.44551e+01 
 9.84019e-03  8.71849e-03  0.00000e+00  3.47944e+00  3.54796e-04  3.60096e+02  3.60050e+02  2.73548e+00  2.77975e+00  2.17769e-01 -1.90356e+01  9.82560e+01  7.47799e+05 -8.41701e+05  2.90973e+02  0.00000e+00 -9.36111e+04 -5.16781e+03 -9.87789e+04  2.17728e-01  1.00000e+00  1.86766e+01  0.00000e+00  1.89362e+01 
 1.00521e-02  8.95702e-03  0.00000e+00  3.47944e+00  3.42636e-04  3.60288e+02  3.60051e+02  2.57300e+00  2.61619e+00  2.32628e-01 -1.09211e+02  1.01744e+02  8.94158e+05 -9.52518e+05  2.80698e+02  0.00000e+00 -5.80794e+04 -2.91832e+04 -8.72626e+04  2.32586e-01  1.00000e+00  1.08806e+02  0.00000e+00  2.71367e+01 
 1.02653e-02  9.19555e-03  0.00000e+00  3.47944e+00  3.30815e-04  3.60584e+02  3.60051e+02  2.30600e+00  2.34614e+00  2.49756e-01 -2.77591e+02  1.05380e+02  1.12664e+06 -1.02338e+06  2.57984e+02  0.00000e+00  1.03518e+05 -7.17047e+04  3.18136e+04  2.49712e-01  1.00000e+00  2.77135e+02  0.00000e+00  4.52240e+01 
 1.04795e-02  9.43408e-03  0.00000e+00  3.47944e+00  3.44099e-04  3.61223e+02  3.60052e+02  1.89456e+00  1.92995e+00  2.67862e-01 -3.40486e+03  1.01314e+02  1.24078e+06 -8.00750e+05  2.11959e+02  1.04483e+06  1.48507e+06 -1.49174e+06 -6.66754e+03  2.67840e-01  1.00000e+00  3.40439e+03  2.78471e+03  1.15205e+02 
