# Code_Saturne plot output (1D profile)
#
# Iteration output: 3232
# Time output:      2.30008e+01
#
#COLUMN_TITLES: Distance | X | Y | Z | diameter_Field2 | temp_Field1 | temp_Field2 | Velocity_Field1[Z] | Velocity_Field2[Z] | vol_f_Field2 | mass_trans_Field1 | Xd_Field2 | BK | COAL | COMP | NUCL | W1 | MT | SMBR | ALPBB | CONDNUM | GAMA | GAMANUC | epsilon_Field1
 4.56474e-03  1.39645e-04  0.00000e+00  3.47944e+00  1.00000e-05  3.57441e+02  3.60048e+02  3.87543e+00  3.87544e+00  4.91877e-11  9.16069e-06  3.48616e+03  0.00000e+00 -3.62473e-02  7.92310e+03  0.00000e+00  7.92307e+03  1.40951e+04  8.71007e+00  5.59204e-11  5.59204e-05 -9.15488e-06  0.00000e+00  3.54928e-01 
 4.57812e-03  3.76525e-04  4.25872e-21  3.47944e+00  1.00000e-05  3.57448e+02  3.60048e+02  3.87519e+00  3.87524e+00  3.11550e-10  5.79662e-05  3.48616e+03  0.00000e+00 -2.28754e-01  8.65538e+03  0.00000e+00  8.65516e+03  8.91624e+04  9.78176e+04  3.51879e-10  3.51879e-04 -5.79117e-05  0.00000e+00  3.58094e-01 
 4.60371e-03  6.13858e-04  0.00000e+00  3.47944e+00  1.00000e-05  3.57460e+02  3.60048e+02  3.87324e+00  3.87332e+00  2.98845e-09  5.58463e-04  3.48614e+03  0.00000e+00 -2.18729e+00  9.82192e+03  0.00000e+00  9.81974e+03  8.58960e+05  8.68780e+05  3.34553e-09  3.34553e-03 -5.57905e-04  0.00000e+00  3.64332e-01 
 4.64138e-03  8.51483e-04  0.00000e+00  3.47944e+00  1.00000e-05  3.57479e+02  3.60046e+02  3.87099e+00  3.87108e+00  3.28335e-08  5.96066e-03  3.48605e+03  0.00000e+00 -2.35002e+01  7.88007e+03  0.00000e+00  7.85657e+03  9.16764e+06  9.17550e+06  3.56444e-08  3.56444e-02 -5.95464e-03  0.00000e+00  3.73735e-01 
 4.69084e-03  1.08931e-03  0.00000e+00  3.47944e+00  1.00000e-05  3.57504e+02  3.60046e+02  3.86786e+00  3.86795e+00  3.75760e-07  6.60100e-02  3.48601e+03 3.46877e-290 -2.63632e+02  7.84037e+03  0.00000e+00  7.57674e+03  1.01523e+08  1.01530e+08  3.95503e-07  3.95503e-01 -6.59427e-02  0.00000e+00  3.86419e-01 
 4.75174e-03  1.32727e-03  1.05001e-20  3.47944e+00  1.00000e-05  3.57534e+02  3.60046e+02  3.86394e+00  3.86402e+00  4.35623e-06  7.36552e-01  3.48601e+03 3.77544e-282 -3.00451e+03  8.01401e+03  0.00000e+00  5.00950e+03  2.54723e+08  2.54728e+08  4.44718e-06  1.00000e+00 -7.35792e-01  0.00000e+00  4.02552e-01 
 4.82366e-03  1.56534e-03  0.00000e+00  3.47944e+00  1.29007e-05  3.57571e+02  3.60046e+02  3.85928e+00  3.85943e+00  3.46663e-05  5.79172e+00  2.70218e+03 5.48063e-172 -1.54909e+04  7.10596e+03  0.00000e+00 -8.38492e+03  1.94098e+08  1.94090e+08  3.52147e-05  1.00000e+00 -5.78566e+00  0.00000e+00  4.22323e-01 
 4.90611e-03  1.80349e-03  8.81027e-21  3.47944e+00  1.95928e-05  3.57613e+02  3.60046e+02  3.85383e+00  3.85420e+00  1.73195e-04  1.90678e+01  1.77923e+03  8.84318e-79 -3.87555e+04  6.14977e+03  0.00000e+00 -3.26057e+04  8.62891e+07  8.62565e+07  1.72892e-04  1.00000e+00 -1.90475e+01  0.00000e+00  4.45974e-01 
 4.99859e-03  2.04170e-03  0.00000e+00  3.47944e+00  2.79062e-05  3.57661e+02  3.60046e+02  3.84764e+00  3.84851e+00  5.37342e-04  3.49096e+01  1.24919e+03  5.05265e-38 -6.79449e+04  4.68947e+03  0.00000e+00 -6.32555e+04  3.56405e+07  3.55772e+07  5.38836e-04  1.00000e+00 -3.48718e+01  0.00000e+00  4.73790e-01 
 5.10055e-03  2.27996e-03  7.58893e-21  3.47944e+00  3.72712e-05  3.57709e+02  3.60046e+02  3.84063e+00  3.84238e+00  1.11185e-03  4.54061e+01  9.35311e+02  3.67155e-19 -8.79356e+04  3.62009e+03  0.00000e+00 -8.43156e+04  1.67822e+07  1.66979e+07  1.11456e-03  1.00000e+00 -4.53558e+01  0.00000e+00  5.06123e-01 
 5.21143e-03  2.51826e-03  7.09702e-21  3.47944e+00  4.68422e-05  3.57763e+02  3.60046e+02  3.83278e+00  3.83568e+00  1.80525e-03  5.06349e+01  7.44206e+02  7.67969e-10 -9.90177e+04  2.91360e+03  0.00000e+00 -9.61041e+04  9.17596e+06  9.07986e+06  1.80893e-03  1.00000e+00 -5.05776e+01  0.00000e+00  5.43380e-01 
 5.33068e-03  2.75659e-03  1.33300e-20  3.47944e+00  5.60883e-05  3.57822e+02  3.60046e+02  3.82399e+00  3.82835e+00  2.60830e-03  5.29957e+01  6.21524e+02  8.51615e-05 -1.07802e+05  2.43684e+03  0.00000e+00 -1.05365e+05  5.55375e+06  5.44839e+06  2.61277e-03  1.00000e+00 -5.29342e+01  0.00000e+00  5.86091e-01 
 5.45775e-03  2.99495e-03  1.25651e-20  3.47944e+00  6.47633e-05  3.57885e+02  3.60046e+02  3.81421e+00  3.82014e+00  3.61976e-03  5.60777e+01  5.38271e+02  8.05305e-02 -1.20024e+05  2.10854e+03  0.00000e+00 -1.17915e+05  3.66870e+06  3.55078e+06  3.62510e-03  1.00000e+00 -5.60106e+01  0.00000e+00  6.34884e-01 
 5.59212e-03  3.23333e-03  0.00000e+00  3.47944e+00  7.29986e-05  3.57952e+02  3.60046e+02  3.80337e+00  3.81078e+00  4.94250e-03  6.12266e+01  4.77547e+02  6.66111e+00 -1.37121e+05  1.87097e+03  0.00000e+00 -1.35244e+05  2.60314e+06  2.46790e+06  4.94915e-03  1.00000e+00 -6.11511e+01  0.00000e+00  6.90540e-01 
 5.73326e-03  3.47172e-03  0.00000e+00  3.47944e+00  8.11507e-05  3.58024e+02  3.60046e+02  3.79144e+00  3.80034e+00  6.62127e-03  6.71738e+01  4.29575e+02  1.44565e+02 -1.57502e+05  1.68199e+03  0.00000e+00 -1.55676e+05  1.91799e+06  1.76232e+06  6.62947e-03  1.00000e+00 -6.70880e+01  0.00000e+00  7.53938e-01 
 5.88069e-03  3.71014e-03 -5.35987e-21  3.47944e+00  8.93319e-05  3.58099e+02  3.60046e+02  3.77831e+00  3.78869e+00  8.72202e-03  7.37852e+01  3.90234e+02  1.33022e+03 -1.81027e+05  1.52591e+03  0.00000e+00 -1.78171e+05  1.45297e+06  1.27480e+06  8.73203e-03  1.00000e+00 -7.36875e+01  0.00000e+00  8.25951e-01 
 6.03395e-03  3.94857e-03  5.10973e-21  3.47944e+00  9.75370e-05  3.58178e+02  3.60046e+02  3.76394e+00  3.77577e+00  1.13112e-02  8.10278e+01  3.57406e+02  6.75623e+03 -2.07891e+05  1.39506e+03  0.00000e+00 -1.99740e+05  1.12693e+06  9.27192e+05  1.13232e-02  1.00000e+00 -8.09160e+01  0.00000e+00  9.07757e-01 
 6.19261e-03  4.18701e-03  0.00000e+00  3.47944e+00  1.05703e-04  3.58260e+02  3.60046e+02  3.74822e+00  3.76142e+00  1.44784e-02  8.89566e+01  3.29795e+02  2.24023e+04 -2.38866e+05  1.28412e+03  0.00000e+00 -2.15179e+05  8.91963e+05  6.76784e+05  1.44930e-02  1.00000e+00 -8.88284e+01  0.00000e+00  1.00061e+00 
 6.35626e-03  4.42546e-03  0.00000e+00  3.47944e+00  1.13742e-04  3.58345e+02  3.60046e+02  3.73108e+00  3.74558e+00  1.83036e-02  9.75681e+01  3.06488e+02  5.45439e+04 -2.74548e+05  1.19008e+03  0.00000e+00 -2.18814e+05  7.19175e+05  5.00361e+05  1.83208e-02  1.00000e+00 -9.74205e+01  0.00000e+00  1.10611e+00 
 6.52453e-03  4.66392e-03 -8.96437e-21  3.47944e+00  1.21634e-04  3.58432e+02  3.60046e+02  3.71237e+00  3.72810e+00  2.29006e-02  1.06847e+02  2.86600e+02  1.06368e+05 -3.15878e+05  1.10880e+03  0.00000e+00 -2.08401e+05  5.88611e+05  3.80210e+05  2.29211e-02  1.00000e+00 -1.06677e+02  0.00000e+00  1.22646e+00 
 6.69707e-03  4.90238e-03  1.72236e-20  3.47944e+00  1.29445e-04  3.58521e+02  3.60046e+02  3.69200e+00  3.70889e+00  2.83647e-02  1.16604e+02  2.69308e+02  1.76901e+05 -3.63055e+05  1.03763e+03  0.00000e+00 -1.85116e+05  4.87298e+05  3.02182e+05  2.83885e-02  1.00000e+00 -1.16408e+02  0.00000e+00  1.36424e+00 
 6.87356e-03  5.14086e-03  8.28595e-21  3.47944e+00  1.37350e-04  3.58611e+02  3.60046e+02  3.66976e+00  3.68778e+00  3.48287e-02  1.26538e+02  2.53807e+02  2.62316e+05 -4.16161e+05  9.72996e+02  0.00000e+00 -1.52872e+05  4.05864e+05  2.52992e+05  3.48565e-02  1.00000e+00 -1.26312e+02  0.00000e+00  1.52286e+00 
 7.05370e-03  5.37934e-03 -1.59677e-20  3.47944e+00  1.45579e-04  3.58702e+02  3.60046e+02  3.64550e+00  3.66468e+00  4.23798e-02  1.36119e+02  2.39462e+02  3.57072e+05 -4.73960e+05  9.13037e+02  0.00000e+00 -1.15975e+05  3.38508e+05  2.22532e+05  4.24114e-02  1.00000e+00 -1.35860e+02  0.00000e+00  1.70585e+00 
 7.23722e-03  5.61783e-03  0.00000e+00  3.47944e+00  1.54412e-04  3.58792e+02  3.60046e+02  3.61891e+00  3.63929e+00  5.11677e-02  1.44839e+02  2.25764e+02  4.55087e+05 -5.35306e+05  8.55239e+02  0.00000e+00 -7.93643e+04  2.81245e+05  2.01881e+05  5.12031e-02  1.00000e+00 -1.44544e+02  0.00000e+00  1.91832e+00 
 7.42387e-03  5.85632e-03  0.00000e+00  3.47944e+00  1.64129e-04  3.58883e+02  3.60046e+02  3.58969e+00  3.61142e+00  6.12330e-02  1.51965e+02  2.12398e+02  5.49841e+05 -5.97357e+05  7.98972e+02  0.00000e+00 -4.67176e+04  2.31964e+05  1.85247e+05  6.12703e-02  1.00000e+00 -1.51632e+02  0.00000e+00  2.16576e+00 
 7.61342e-03  6.09482e-03  0.00000e+00  3.47944e+00  1.74987e-04  3.58972e+02  3.60046e+02  3.55740e+00  3.58066e+00  7.26737e-02  1.54728e+02  1.99220e+02  6.35420e+05 -6.57913e+05  7.43177e+02  0.00000e+00 -2.17494e+04  1.86623e+05  1.64873e+05  7.27178e-02  1.00000e+00 -1.54362e+02  0.00000e+00  2.45552e+00 
 7.80566e-03  6.33332e-03  0.00000e+00  3.47944e+00  1.87072e-04  3.59061e+02  3.60046e+02  3.52162e+00  3.54660e+00  8.54122e-02  1.54215e+02  1.86350e+02  7.07073e+05 -7.14022e+05  6.88931e+02  0.00000e+00 -6.26011e+03  1.48017e+05  1.41757e+05  8.54598e-02  1.00000e+00 -1.53818e+02  0.00000e+00  2.79578e+00 
 8.00039e-03  6.57182e-03  0.00000e+00  3.47944e+00  2.00342e-04  3.59149e+02  3.60046e+02  3.48172e+00  3.50822e+00  9.93289e-02  1.50582e+02  1.74007e+02  7.62609e+05 -7.63876e+05  6.36591e+02  0.00000e+00 -6.30259e+02  1.16031e+05  1.15401e+05  9.93775e-02  1.00000e+00 -1.50159e+02  0.00000e+00  3.19681e+00 
 8.19744e-03  6.81033e-03  1.31016e-20  3.47944e+00  2.14571e-04  3.59235e+02  3.60047e+02  3.43714e+00  3.46545e+00  1.14292e-01  1.44174e+02  1.62469e+02  8.02247e+05 -8.07201e+05  5.87402e+02  0.00000e+00 -4.36633e+03  9.01312e+04  8.57648e+04  1.14337e-01  1.00000e+00 -1.43726e+02  0.00000e+00  3.67002e+00 
 8.39664e-03  7.04884e-03  0.00000e+00  3.47944e+00  2.29252e-04  3.59321e+02  3.60047e+02  3.38771e+00  3.41779e+00  1.29983e-01  1.35419e+02  1.52065e+02  8.29813e+05 -8.45195e+05  5.42048e+02  0.00000e+00 -1.48396e+04  6.96482e+04  5.48086e+04  1.30036e-01  1.00000e+00 -1.34951e+02  0.00000e+00  4.23692e+00 
 8.59784e-03  7.28736e-03  0.00000e+00  3.47944e+00  2.43624e-04  3.59406e+02  3.60047e+02  3.33161e+00  3.36333e+00  1.46098e-01  1.24856e+02  1.43095e+02  8.49430e+05 -8.80417e+05  5.02227e+02  0.00000e+00 -3.04855e+04  5.37432e+04  2.32577e+04  1.46151e-01  1.00000e+00 -1.24369e+02  0.00000e+00  4.91340e+00 
 8.80092e-03  7.52587e-03  0.00000e+00  3.47944e+00  2.56656e-04  3.59492e+02  3.60047e+02  3.27069e+00  3.30347e+00  1.62255e-01  1.13021e+02  1.35829e+02  8.69285e+05 -9.18280e+05  4.68132e+02  0.00000e+00 -4.85273e+04  4.15604e+04 -6.96684e+03  1.62308e-01  1.00000e+00 -1.12514e+02  0.00000e+00  5.74684e+00 
 9.00573e-03  7.76439e-03 -1.17014e-20  3.47944e+00  2.67331e-04  3.59579e+02  3.60047e+02  3.19818e+00  3.23168e+00  1.78331e-01  1.00159e+02  1.30406e+02  8.94908e+05 -9.65043e+05  4.40641e+02  0.00000e+00 -6.96947e+04  3.21519e+04 -3.75428e+04  1.78376e-01  1.00000e+00 -9.96307e+01  0.00000e+00  6.77432e+00 
 9.21216e-03  8.00291e-03  0.00000e+00  3.47944e+00  2.74513e-04  3.59670e+02  3.60047e+02  3.12152e+00  3.15536e+00  1.94150e-01  8.61543e+01  1.26994e+02  9.36696e+05 -1.03061e+06  4.18587e+02  0.00000e+00 -9.34996e+04  2.47107e+04 -6.87888e+04  1.94197e-01  1.00000e+00 -8.55968e+01  0.00000e+00  8.10651e+00 
 9.42012e-03  8.24144e-03  0.00000e+00  3.47944e+00  2.77372e-04  3.59765e+02  3.60048e+02  3.02847e+00  3.06172e+00  2.09808e-01  7.00784e+01  1.25686e+02  1.00385e+06 -1.12660e+06  4.02347e+02  0.00000e+00 -1.22350e+05  1.83720e+04 -1.03978e+05  2.09855e-01  1.00000e+00 -6.94816e+01  0.00000e+00  9.89377e+00 
 9.62949e-03  8.47996e-03  0.00000e+00  3.47944e+00  2.75004e-04  3.59870e+02  3.60048e+02  2.92236e+00  2.95434e+00  2.25251e-01  4.99619e+01  1.26769e+02  1.11382e+06 -1.27230e+06  3.91065e+02  0.00000e+00 -1.58093e+05  1.22493e+04 -1.45844e+05  2.25308e-01  1.00000e+00 -4.93096e+01  0.00000e+00  1.24577e+01 
 9.84019e-03  8.71849e-03  0.00000e+00  3.47944e+00  2.66845e-04  3.59992e+02  3.60048e+02  2.78729e+00  2.81802e+00  2.40720e-01  2.12971e+01  1.30646e+02  1.29148e+06 -1.49840e+06  3.84211e+02  0.00000e+00 -2.06533e+05  4.92684e+03 -2.01606e+05  2.40779e-01  1.00000e+00 -2.05656e+01  0.00000e+00  1.63517e+01 
 1.00521e-02  8.95702e-03  0.00000e+00  3.47944e+00  2.52039e-04  3.60145e+02  3.60049e+02  2.62422e+00  2.65331e+00  2.56139e-01 -5.97432e+01  1.38322e+02  1.61102e+06 -1.87027e+06  3.80609e+02  0.00000e+00 -2.58871e+05 -1.46779e+04 -2.73549e+05  2.56221e-01  1.00000e+00  6.15874e+01  0.00000e+00  2.34325e+01 
 1.02653e-02  9.19555e-03  0.00000e+00  3.47944e+00  2.30211e-04  3.60381e+02  3.60049e+02  2.37857e+00  2.40524e+00  2.72884e-01 -2.89898e+02  1.51439e+02  2.24279e+06 -2.52376e+06  3.73648e+02  0.00000e+00 -2.80596e+05 -7.15501e+04 -3.52147e+05  2.72958e-01  1.00000e+00  2.92128e+02  0.00000e+00  3.92442e+01 
 1.04795e-02  9.43408e-03  0.00000e+00  3.47944e+00  2.02426e-04  3.60931e+02  3.60050e+02  1.97161e+00  1.99067e+00  2.93529e-01 -3.96631e+03  1.72227e+02  3.88307e+06 -3.60459e+06  3.70034e+02  1.85372e+06  2.13257e+06 -2.17098e+06 -3.84080e+04  2.93673e-01  1.00000e+00  3.96917e+03  2.92500e+03  1.00327e+02 
