# Code_Saturne plot output (1D profile)
#
# Iteration output: 4904
# Time output:      2.30035e+01
#
#COLUMN_TITLES: Distance | X | Y | Z | diameter_Field2 | temp_Field1 | temp_Field2 | Velocity_Field1[Z] | Velocity_Field2[Z] | vol_f_Field2 | mass_trans_Field1 | Xd_Field2 | BK | COAL | COMP | NUCL | W1 | MT | SMBR | ALPBB | CONDNUM | GAMA | GAMANUC | epsilon_Field1
 4.56474e-03  1.39645e-04  0.00000e+00  3.47944e+00  1.21200e-03  3.60287e+02  3.60082e+02  6.68524e+00  6.89216e+00  5.32318e-01 -2.38111e+01  2.87074e+01  4.56587e+04 -5.14552e+04  4.35812e+02  0.00000e+00 -5.36064e+03 -7.39356e+02 -6.10000e+03  5.32316e-01  1.00000e+00  2.38117e+01  0.00000e+00  6.04380e+00 
 4.57812e-03  3.76525e-04  4.25872e-21  3.47944e+00  1.21387e-03  3.60287e+02  3.60082e+02  6.68420e+00  6.89201e+00  5.32313e-01 -2.37751e+01  2.86632e+01  4.56262e+04 -5.08896e+04  4.35159e+02  0.00000e+00 -4.82824e+03 -7.37106e+02 -5.56535e+03  5.32312e-01  1.00000e+00  2.37757e+01  0.00000e+00  6.07360e+00 
 4.60371e-03  6.13858e-04  0.00000e+00  3.47944e+00  1.21337e-03  3.60287e+02  3.60082e+02  6.68062e+00  6.88909e+00  5.32232e-01 -2.37953e+01  2.86749e+01  4.58187e+04 -5.05799e+04  4.35208e+02  0.00000e+00 -4.32599e+03 -7.38144e+02 -5.06413e+03  5.32231e-01  1.00000e+00  2.37959e+01  0.00000e+00  6.13140e+00 
 4.64138e-03  8.51483e-04  0.00000e+00  3.47944e+00  1.21025e-03  3.60286e+02  3.60082e+02  6.67549e+00  6.88392e+00  5.32059e-01 -2.38652e+01  2.87488e+01  4.62542e+04 -5.05771e+04  4.36090e+02  0.00000e+00 -3.88677e+03 -7.42462e+02 -4.62923e+03  5.32057e-01  1.00000e+00  2.38657e+01  0.00000e+00  6.21704e+00 
 4.69084e-03  1.08931e-03  0.00000e+00  3.47944e+00  1.20420e-03  3.60286e+02  3.60082e+02  6.66854e+00  6.87638e+00  5.31822e-01 -2.40013e+01  2.88934e+01  4.69570e+04 -5.09506e+04  4.37918e+02  0.00000e+00 -3.55569e+03 -7.50788e+02 -4.30648e+03  5.31821e-01  1.00000e+00  2.40019e+01  0.00000e+00  6.33145e+00 
 4.75174e-03  1.32727e-03  1.05001e-20  3.47944e+00  1.19503e-03  3.60285e+02  3.60082e+02  6.65985e+00  6.86665e+00  5.31528e-01 -2.42134e+01  2.91150e+01  4.79507e+04 -5.17566e+04  4.40789e+02  0.00000e+00 -3.36506e+03 -7.63655e+02 -4.12872e+03  5.31527e-01  1.00000e+00  2.42140e+01  0.00000e+00  6.47555e+00 
 4.82366e-03  1.56534e-03  0.00000e+00  3.47944e+00  1.18282e-03  3.60285e+02  3.60082e+02  6.64937e+00  6.85467e+00  5.31194e-01 -2.45059e+01  2.94157e+01  4.92513e+04 -5.30236e+04  4.44719e+02  0.00000e+00 -3.32749e+03 -7.81350e+02 -4.10884e+03  5.31192e-01  1.00000e+00  2.45064e+01  0.00000e+00  6.65085e+00 
 4.90611e-03  1.80349e-03  8.81027e-21  3.47944e+00  1.16781e-03  3.60284e+02  3.60082e+02  6.63707e+00  6.84044e+00  5.30836e-01 -2.48767e+01  2.97937e+01  5.08683e+04 -5.47544e+04  4.49672e+02  0.00000e+00 -3.43643e+03 -8.03907e+02 -4.24034e+03  5.30835e-01  1.00000e+00  2.48772e+01  0.00000e+00  6.85929e+00 
 4.99859e-03  2.04170e-03  0.00000e+00  3.47944e+00  1.15041e-03  3.60284e+02  3.60082e+02  6.62287e+00  6.82393e+00  5.30482e-01 -2.53241e+01  3.02445e+01  5.28042e+04 -5.69362e+04  4.55567e+02  0.00000e+00 -3.67649e+03 -8.31304e+02 -4.50780e+03  5.30481e-01  1.00000e+00  2.53247e+01  0.00000e+00  7.10286e+00 
 5.10055e-03  2.27996e-03  7.58893e-21  3.47944e+00  1.13104e-03  3.60283e+02  3.60082e+02  6.60667e+00  6.80507e+00  5.30152e-01 -2.58440e+01  3.07626e+01  5.50617e+04 -5.95485e+04  4.62302e+02  0.00000e+00 -4.02453e+03 -8.63440e+02 -4.88797e+03  5.30151e-01  1.00000e+00  2.58446e+01  0.00000e+00  7.38402e+00 
 5.21143e-03  2.51826e-03  7.09702e-21  3.47944e+00  1.11012e-03  3.60282e+02  3.60082e+02  6.58835e+00  6.78372e+00  5.29876e-01 -2.64311e+01  3.13422e+01  5.76425e+04 -6.25688e+04  4.69779e+02  0.00000e+00 -4.45649e+03 -9.00159e+02 -5.35665e+03  5.29875e-01  1.00000e+00  2.64317e+01  0.00000e+00  7.70558e+00 
 5.33068e-03  2.75659e-03  1.33300e-20  3.47944e+00  1.08804e-03  3.60281e+02  3.60082e+02  6.56813e+00  6.75986e+00  5.29743e-01 -2.70764e+01  3.19785e+01  6.05453e+04 -6.59888e+04  4.77939e+02  0.00000e+00 -4.96553e+03 -9.41095e+02 -5.90662e+03  5.29742e-01  1.00000e+00  2.70770e+01  0.00000e+00  8.07103e+00 
 5.45775e-03  2.99495e-03  1.25651e-20  3.47944e+00  1.06506e-03  3.60280e+02  3.60083e+02  6.54600e+00  6.73410e+00  5.29733e-01 -2.77972e+01  3.26686e+01  6.37896e+04 -6.97965e+04  4.86779e+02  0.00000e+00 -5.52012e+03 -9.87016e+02 -6.50714e+03  5.29732e-01  1.00000e+00  2.77978e+01  0.00000e+00  8.48510e+00 
 5.59212e-03  3.23333e-03  0.00000e+00  3.47944e+00  1.04144e-03  3.60279e+02  3.60083e+02  6.52120e+00  6.70681e+00  5.29793e-01 -2.86229e+01  3.34094e+01  6.74007e+04 -7.39744e+04  4.96144e+02  0.00000e+00 -6.07757e+03 -1.03926e+03 -7.11683e+03  5.29792e-01  1.00000e+00  2.86236e+01  0.00000e+00  8.95275e+00 
 5.73326e-03  3.47172e-03  0.00000e+00  3.47944e+00  1.01747e-03  3.60278e+02  3.60083e+02  6.49392e+00  6.67639e+00  5.30009e-01 -2.95038e+01  3.41968e+01  7.13726e+04 -7.85334e+04  5.05929e+02  0.00000e+00 -6.65481e+03 -1.09605e+03 -7.75086e+03  5.30009e-01  1.00000e+00  2.95045e+01  0.00000e+00  9.47597e+00 
 5.88069e-03  3.71014e-03 -5.35987e-21  3.47944e+00  9.93257e-04  3.60277e+02  3.60083e+02  6.46424e+00  6.64320e+00  5.30413e-01 -3.04518e+01  3.50305e+01  7.57266e+04 -8.34939e+04  5.16127e+02  0.00000e+00 -7.25118e+03 -1.15796e+03 -8.40915e+03  5.30413e-01  1.00000e+00  3.04526e+01  0.00000e+00  1.00604e+01 
 6.03395e-03  3.94857e-03  5.10973e-21  3.47944e+00  9.68939e-04  3.60276e+02  3.60083e+02  6.43185e+00  6.60706e+00  5.31020e-01 -3.14764e+01  3.59098e+01  8.04832e+04 -8.88829e+04  5.26679e+02  0.00000e+00 -7.87302e+03 -1.22557e+03 -9.09858e+03  5.31020e-01  1.00000e+00  3.14772e+01  0.00000e+00  1.07108e+01 
 6.19261e-03  4.18701e-03  0.00000e+00  3.47944e+00  9.44568e-04  3.60276e+02  3.60084e+02  6.39671e+00  6.56797e+00  5.31830e-01 -3.25875e+01  3.68365e+01  8.56812e+04 -9.47337e+04  5.37584e+02  0.00000e+00 -8.51491e+03 -1.29959e+03 -9.81450e+03  5.31830e-01  1.00000e+00  3.25883e+01  0.00000e+00  1.14352e+01 
 6.35626e-03  4.42546e-03  0.00000e+00  3.47944e+00  9.20215e-04  3.60275e+02  3.60084e+02  6.35855e+00  6.52562e+00  5.32857e-01 -3.37944e+01  3.78116e+01  9.13488e+04 -1.01099e+05  5.48801e+02  0.00000e+00 -9.20170e+03 -1.38073e+03 -1.05824e+04  5.32857e-01  1.00000e+00  3.37952e+01  0.00000e+00  1.22393e+01 
 6.52453e-03  4.66392e-03 -8.96437e-21  3.47944e+00  8.95876e-04  3.60274e+02  3.60084e+02  6.31732e+00  6.47995e+00  5.34091e-01 -3.51121e+01  3.88391e+01  9.75481e+04 -1.08032e+05  5.60346e+02  0.00000e+00 -9.92330e+03 -1.47014e+03 -1.13934e+04  5.34091e-01  1.00000e+00  3.51129e+01  0.00000e+00  1.31351e+01 
 6.69707e-03  4.90238e-03  1.72236e-20  3.47944e+00  8.71594e-04  3.60273e+02  3.60084e+02  6.27263e+00  6.43053e+00  5.35535e-01 -3.65566e+01  3.99214e+01  1.04319e+05 -1.15619e+05  5.72177e+02  0.00000e+00 -1.07278e+04 -1.56904e+03 -1.22968e+04  5.35536e-01  1.00000e+00  3.65575e+01  0.00000e+00  1.41290e+01 
 6.87356e-03  5.14086e-03  8.28595e-21  3.47944e+00  8.47306e-04  3.60273e+02  3.60085e+02  6.22462e+00  6.37751e+00  5.37174e-01 -3.81552e+01  4.10660e+01  1.11764e+05 -1.23937e+05  5.84362e+02  0.00000e+00 -1.15892e+04 -1.67946e+03 -1.32686e+04  5.37176e-01  1.00000e+00  3.81561e+01  0.00000e+00  1.52408e+01 
 7.05370e-03  5.37934e-03 -1.59677e-20  3.47944e+00  8.23041e-04  3.60273e+02  3.60085e+02  6.17241e+00  6.31994e+00  5.39003e-01 -3.99355e+01  4.22770e+01  1.19939e+05 -1.33129e+05  5.96849e+02  0.00000e+00 -1.25940e+04 -1.80351e+03 -1.43975e+04  5.39006e-01  1.00000e+00  3.99364e+01  0.00000e+00  1.64775e+01 
 7.23722e-03  5.61783e-03  0.00000e+00  3.47944e+00  7.98669e-04  3.60273e+02  3.60085e+02  6.11668e+00  6.25860e+00  5.41006e-01 -4.19487e+01  4.35675e+01  1.29016e+05 -1.43323e+05  6.09819e+02  0.00000e+00 -1.36969e+04 -1.94503e+03 -1.56419e+04  5.41009e-01  1.00000e+00  4.19497e+01  0.00000e+00  1.78716e+01 
 7.42387e-03  5.85632e-03  0.00000e+00  3.47944e+00  7.74215e-04  3.60273e+02  3.60086e+02  6.05551e+00  6.19156e+00  5.43160e-01 -4.42483e+01  4.49440e+01  1.39083e+05 -1.54760e+05  6.23076e+02  0.00000e+00 -1.50542e+04 -2.10808e+03 -1.71623e+04  5.43164e-01  1.00000e+00  4.42493e+01  0.00000e+00  1.94305e+01 
 7.61342e-03  6.09482e-03  0.00000e+00  3.47944e+00  7.49450e-04  3.60274e+02  3.60086e+02  5.99120e+00  6.12117e+00  5.45477e-01 -4.69180e+01  4.64295e+01  1.50442e+05 -1.67658e+05  6.37044e+02  0.00000e+00 -1.65787e+04 -2.29933e+03 -1.88780e+04  5.45482e-01  1.00000e+00  4.69190e+01  0.00000e+00  2.12134e+01 
 7.80566e-03  6.33332e-03  0.00000e+00  3.47944e+00  7.24381e-04  3.60276e+02  3.60087e+02  5.91920e+00  6.04281e+00  5.47868e-01 -5.00590e+01  4.80368e+01  1.63268e+05 -1.82461e+05  6.51377e+02  0.00000e+00 -1.85421e+04 -2.52711e+03 -2.10692e+04  5.47874e-01  1.00000e+00  5.00601e+01  0.00000e+00  2.32291e+01 
 8.00039e-03  6.57182e-03  0.00000e+00  3.47944e+00  6.98637e-04  3.60278e+02  3.60087e+02  5.84580e+00  5.96294e+00  5.50289e-01 -5.38359e+01  4.98074e+01  1.78173e+05 -1.99540e+05  6.67161e+02  0.00000e+00 -2.06993e+04 -2.80554e+03 -2.35049e+04  5.50297e-01  1.00000e+00  5.38370e+01  0.00000e+00  2.55912e+01 
 8.19744e-03  6.81033e-03  1.31016e-20  3.47944e+00  6.72356e-04  3.60282e+02  3.60088e+02  5.75897e+00  5.86954e+00  5.52689e-01 -5.84486e+01  5.17548e+01  1.95392e+05 -2.19661e+05  6.83134e+02  0.00000e+00 -2.35868e+04 -3.15126e+03 -2.67381e+04  5.52699e-01  1.00000e+00  5.84498e+01  0.00000e+00  2.83042e+01 
 8.39664e-03  7.04884e-03  0.00000e+00  3.47944e+00  6.45012e-04  3.60286e+02  3.60088e+02  5.67568e+00  5.77968e+00  5.55148e-01 -6.42259e+01  5.39494e+01  2.16036e+05 -2.43516e+05  7.01930e+02  0.00000e+00 -2.67781e+04 -3.59357e+03 -3.03717e+04  5.55160e-01  1.00000e+00  6.42272e+01  0.00000e+00  3.15911e+01 
 8.59784e-03  7.28736e-03  0.00000e+00  3.47944e+00  6.16876e-04  3.60293e+02  3.60089e+02  5.56658e+00  5.66383e+00  5.57579e-01 -7.15986e+01  5.64109e+01  2.40506e+05 -2.72616e+05  7.19942e+02  0.00000e+00 -3.13905e+04 -4.17058e+03 -3.55611e+04  5.57593e-01  1.00000e+00  7.16000e+01  0.00000e+00  3.54447e+01 
 8.80092e-03  7.52587e-03  0.00000e+00  3.47944e+00  5.87066e-04  3.60302e+02  3.60090e+02  5.47300e+00  5.56352e+00  5.60114e-01 -8.13350e+01  5.92761e+01  2.71193e+05 -3.08489e+05  7.43888e+02  0.00000e+00 -3.65531e+04 -4.95580e+03 -4.15089e+04  5.60130e-01  1.00000e+00  8.13364e+01  0.00000e+00  4.03439e+01 
 9.00573e-03  7.76439e-03 -1.17014e-20  3.47944e+00  5.56093e-04  3.60314e+02  3.60091e+02  5.32845e+00  5.41185e+00  5.62634e-01 -9.45231e+01  6.25786e+01  3.08950e+05 -3.54400e+05  7.64356e+02  0.00000e+00 -4.46862e+04 -6.05298e+03 -5.07392e+04  5.62653e-01  1.00000e+00  9.45246e+01  0.00000e+00  4.62755e+01 
 9.21216e-03  8.00291e-03  0.00000e+00  3.47944e+00  5.22429e-04  3.60331e+02  3.60091e+02  5.22280e+00  5.29919e+00  5.65335e-01 -1.13355e+02  6.66118e+01  3.59603e+05 -4.14450e+05  7.97574e+02  0.00000e+00 -5.40494e+04 -7.68986e+03 -6.17393e+04  5.65355e-01  1.00000e+00  1.13357e+02  0.00000e+00  5.43845e+01 
 9.42012e-03  8.24144e-03  0.00000e+00  3.47944e+00  4.86936e-04  3.60356e+02  3.60092e+02  5.01992e+00  5.08851e+00  5.68098e-01 -1.41296e+02  7.14687e+01  4.25968e+05 -4.96952e+05  8.21415e+02  0.00000e+00 -7.01630e+04 -1.02342e+04 -8.03972e+04  5.68120e-01  1.00000e+00  1.41298e+02  0.00000e+00  6.48156e+01 
 9.62949e-03  8.47996e-03  0.00000e+00  3.47944e+00  4.46971e-04  3.60394e+02  3.60093e+02  4.89134e+00  4.95260e+00  5.71155e-01 -1.86712e+02  7.78601e+01  5.25230e+05 -6.15531e+05  8.71897e+02  0.00000e+00 -8.94287e+04 -1.46543e+04 -1.04083e+05  5.71178e-01  1.00000e+00  1.86714e+02  0.00000e+00  8.08519e+01 
 9.84019e-03  8.71849e-03  0.00000e+00  3.47944e+00  4.03666e-04  3.60455e+02  3.60095e+02  4.58614e+00  4.63856e+00  5.74341e-01 -2.66238e+02  8.62150e+01  6.72897e+05 -7.98457e+05  9.02875e+02  0.00000e+00 -1.24657e+05 -2.30101e+04 -1.47667e+05  5.74366e-01  1.00000e+00  2.66240e+02  0.00000e+00  1.04443e+02 
 1.00521e-02  8.95702e-03  0.00000e+00  3.47944e+00  3.52453e-04  3.60562e+02  3.60096e+02  4.38336e+00  4.42813e+00  5.77859e-01 -4.33307e+02  9.87443e+01  9.44604e+05 -1.10675e+06  9.85405e+02  0.00000e+00 -1.61165e+05 -4.26311e+04 -2.03796e+05  5.77888e-01  1.00000e+00  4.33309e+02  0.00000e+00  1.50078e+02 
 1.02653e-02  9.19555e-03  0.00000e+00  3.47944e+00  2.95395e-04  3.60794e+02  3.60098e+02  3.84148e+00  3.87455e+00  5.81705e-01 -8.62549e+02  1.17821e+02  1.48625e+06 -1.64785e+06  1.02210e+03  0.00000e+00 -1.60575e+05 -1.00582e+05 -2.61156e+05  5.81741e-01  1.00000e+00  8.62552e+02  0.00000e+00  2.47646e+02 
 1.04795e-02  9.43408e-03  0.00000e+00  3.47944e+00  2.38827e-04  3.61504e+02  3.60099e+02  3.22810e+00  3.24629e+00  5.86495e-01 -6.50503e+03  1.45733e+02  2.86498e+06 -1.91646e+06  1.08604e+03  6.90053e+05  1.63966e+06 -1.59880e+06  4.08678e+04  5.86537e-01  1.00000e+00  6.50504e+03  4.03421e+03  6.29620e+02 
