# Code_Saturne plot output (1D profile)
#
# Iteration output: 3586
# Time output:      2.30033e+01
#
#COLUMN_TITLES: Distance | X | Y | Z | diameter_Field2 | temp_Field1 | temp_Field2 | Velocity_Field1[Z] | Velocity_Field2[Z] | vol_f_Field2 | mass_trans_Field1 | Xd_Field2 | BK | COAL | COMP | NUCL | W1 | MT | SMBR | ALPBB | CONDNUM | GAMA | GAMANUC | epsilon_Field1
 4.56474e-03  1.39645e-04  0.00000e+00  3.47944e+00  2.71560e-04  3.60113e+02  3.60063e+02  5.73425e+00  5.79715e+00  3.15363e-01 -1.80746e+01  1.28253e+02  5.30497e+05 -7.42930e+05  1.15693e+03  0.00000e+00 -2.11277e+05 -1.38753e+03 -2.12664e+05  3.15361e-01  1.00000e+00  1.80648e+01  0.00000e+00  1.44459e+00 
 4.57812e-03  3.76525e-04  4.25872e-21  3.47944e+00  2.76834e-04  3.60113e+02  3.60063e+02  5.73256e+00  5.79698e+00  3.16206e-01 -1.77031e+01  1.25810e+02  5.30046e+05 -7.22000e+05  1.13482e+03  0.00000e+00 -1.90818e+05 -1.32956e+03 -1.92148e+05  3.16204e-01  1.00000e+00  1.76935e+01  0.00000e+00  1.46078e+00 
 4.60371e-03  6.13858e-04  0.00000e+00  3.47944e+00  2.79821e-04  3.60113e+02  3.60063e+02  5.72935e+00  5.79440e+00  3.17687e-01 -1.75766e+01  1.24466e+02  5.35190e+05 -7.15848e+05  1.12237e+03  0.00000e+00 -1.79536e+05 -1.29988e+03 -1.80836e+05  3.17684e-01  1.00000e+00  1.75671e+01  0.00000e+00  1.49222e+00 
 4.64138e-03  8.51483e-04  0.00000e+00  3.47944e+00  2.81392e-04  3.60113e+02  3.60063e+02  5.72465e+00  5.78977e+00  3.19796e-01 -1.76105e+01  1.23772e+02  5.45270e+05 -7.19684e+05  1.11544e+03  0.00000e+00 -1.73299e+05 -1.28658e+03 -1.74585e+05  3.19793e-01  1.00000e+00  1.76010e+01  0.00000e+00  1.53955e+00 
 4.69084e-03  1.08931e-03  0.00000e+00  3.47944e+00  2.82301e-04  3.60113e+02  3.60063e+02  5.71832e+00  5.78319e+00  3.22559e-01 -1.77403e+01  1.23373e+02  5.59489e+05 -7.29944e+05  1.11088e+03  0.00000e+00 -1.69344e+05 -1.28082e+03 -1.70625e+05  3.22555e-01  1.00000e+00  1.77307e+01  0.00000e+00  1.60333e+00 
 4.75174e-03  1.32727e-03  1.05001e-20  3.47944e+00  2.82932e-04  3.60113e+02  3.60062e+02  5.71029e+00  5.77470e+00  3.25930e-01 -1.79308e+01  1.23098e+02  5.77398e+05 -7.44771e+05  1.10713e+03  0.00000e+00 -1.66266e+05 -1.27834e+03 -1.67544e+05  3.25927e-01  1.00000e+00  1.79211e+01  0.00000e+00  1.68451e+00 
 4.82366e-03  1.56534e-03  0.00000e+00  3.47944e+00  2.83511e-04  3.60113e+02  3.60062e+02  5.70048e+00  5.76430e+00  3.29889e-01 -1.81605e+01  1.22846e+02  5.98555e+05 -7.63043e+05  1.10328e+03  0.00000e+00 -1.63385e+05 -1.27656e+03 -1.64661e+05  3.29886e-01  1.00000e+00  1.81507e+01  0.00000e+00  1.78409e+00 
 4.90611e-03  1.80349e-03  8.81027e-21  3.47944e+00  2.84158e-04  3.60113e+02  3.60062e+02  5.68880e+00  5.75194e+00  3.34380e-01 -1.84139e+01  1.22567e+02  6.22590e+05 -7.83995e+05  1.09884e+03  0.00000e+00 -1.60306e+05 -1.27408e+03 -1.61580e+05  3.34378e-01  1.00000e+00  1.84040e+01  0.00000e+00  1.90328e+00 
 4.99859e-03  2.04170e-03  0.00000e+00  3.47944e+00  2.84945e-04  3.60112e+02  3.60062e+02  5.67517e+00  5.73759e+00  3.39357e-01 -1.86792e+01  1.22228e+02  6.49082e+05 -8.07040e+05  1.09354e+03  0.00000e+00 -1.56864e+05 -1.26997e+03 -1.58134e+05  3.39354e-01  1.00000e+00  1.86692e+01  0.00000e+00  2.04335e+00 
 5.10055e-03  2.27996e-03  7.58893e-21  3.47944e+00  2.85901e-04  3.60112e+02  3.60062e+02  5.65951e+00  5.72115e+00  3.44754e-01 -1.89466e+01  1.21820e+02  6.77622e+05 -8.31694e+05  1.08726e+03  0.00000e+00 -1.52985e+05 -1.26375e+03 -1.54248e+05  3.44751e-01  1.00000e+00  1.89365e+01  0.00000e+00  2.20565e+00 
 5.21143e-03  2.51826e-03  7.09702e-21  3.47944e+00  2.87031e-04  3.60112e+02  3.60062e+02  5.64173e+00  5.70260e+00  3.50507e-01 -1.92078e+01  1.21340e+02  7.07791e+05 -8.57549e+05  1.07997e+03  0.00000e+00 -1.48678e+05 -1.25519e+03 -1.49934e+05  3.50503e-01  1.00000e+00  1.91976e+01  0.00000e+00  2.39155e+00 
 5.33068e-03  2.75659e-03  1.33300e-20  3.47944e+00  2.88310e-04  3.60112e+02  3.60062e+02  5.62180e+00  5.68187e+00  3.56429e-01 -1.94534e+01  1.20802e+02  7.39353e+05 -8.84044e+05  1.07190e+03  0.00000e+00 -1.43619e+05 -1.24456e+03 -1.44863e+05  3.56427e-01  1.00000e+00  1.94430e+01  0.00000e+00  2.60246e+00 
 5.45775e-03  2.99495e-03  1.25651e-20  3.47944e+00  2.89715e-04  3.60112e+02  3.60062e+02  5.59963e+00  5.65889e+00  3.62631e-01 -1.96844e+01  1.20216e+02  7.71753e+05 -9.11304e+05  1.06296e+03  0.00000e+00 -1.38488e+05 -1.23178e+03 -1.39720e+05  3.62636e-01  1.00000e+00  1.96740e+01  0.00000e+00  2.83980e+00 
 5.59212e-03  3.23333e-03  0.00000e+00  3.47944e+00  2.91192e-04  3.60112e+02  3.60062e+02  5.57522e+00  5.63368e+00  3.68986e-01 -1.98954e+01  1.19607e+02  8.04849e+05 -9.39057e+05  1.05342e+03  0.00000e+00 -1.33154e+05 -1.21735e+03 -1.34372e+05  3.68988e-01  1.00000e+00  1.98849e+01  0.00000e+00  3.10508e+00 
 5.73326e-03  3.47172e-03  0.00000e+00  3.47944e+00  2.92677e-04  3.60111e+02  3.60063e+02  5.54854e+00  5.60618e+00  3.75406e-01 -2.00852e+01  1.19000e+02  8.38537e+05 -9.67248e+05  1.04353e+03  0.00000e+00 -1.27667e+05 -1.20181e+03 -1.28868e+05  3.75408e-01  1.00000e+00  2.00745e+01  0.00000e+00  3.39992e+00 
 5.88069e-03  3.71014e-03 -5.35987e-21  3.47944e+00  2.94096e-04  3.60111e+02  3.60063e+02  5.51957e+00  5.57638e+00  3.81840e-01 -2.02552e+01  1.18426e+02  8.72840e+05 -9.96017e+05  1.03356e+03  0.00000e+00 -1.22143e+05 -1.18582e+03 -1.23329e+05  3.81842e-01  1.00000e+00  2.02445e+01  0.00000e+00  3.72621e+00 
 6.03395e-03  3.94857e-03  5.10973e-21  3.47944e+00  2.95371e-04  3.60111e+02  3.60063e+02  5.48833e+00  5.54429e+00  3.88250e-01 -2.04084e+01  1.17915e+02  9.07885e+05 -1.02564e+06  1.02377e+03  0.00000e+00 -1.16730e+05 -1.16999e+03 -1.17900e+05  3.88251e-01  1.00000e+00  2.03975e+01  0.00000e+00  4.08610e+00 
 6.19261e-03  4.18701e-03  0.00000e+00  3.47944e+00  2.96422e-04  3.60110e+02  3.60063e+02  5.45478e+00  5.50984e+00  3.94592e-01 -2.05490e+01  1.17498e+02  9.43987e+05 -1.05650e+06  1.01441e+03  0.00000e+00 -1.11502e+05 -1.15501e+03 -1.12657e+05  3.94592e-01  1.00000e+00  2.05380e+01  0.00000e+00  4.48234e+00 
 6.35626e-03  4.42546e-03  0.00000e+00  3.47944e+00  2.97170e-04  3.60110e+02  3.60063e+02  5.41886e+00  5.47299e+00  4.00852e-01 -2.06827e+01  1.17202e+02  9.81507e+05 -1.08914e+06  1.00570e+03  0.00000e+00 -1.06624e+05 -1.14149e+03 -1.07765e+05  4.00852e-01  1.00000e+00  2.06716e+01  0.00000e+00  4.91809e+00 
 6.52453e-03  4.66392e-03 -8.96437e-21  3.47944e+00  2.97537e-04  3.60110e+02  3.60063e+02  5.38057e+00  5.43370e+00  4.06987e-01 -2.08160e+01  1.17058e+02  1.02106e+06 -1.12414e+06  9.97870e+02  0.00000e+00 -1.02079e+05 -1.13014e+03 -1.03209e+05  4.06987e-01  1.00000e+00  2.08048e+01  0.00000e+00  5.39765e+00 
 6.69707e-03  4.90238e-03  1.72236e-20  3.47944e+00  2.97460e-04  3.60109e+02  3.60063e+02  5.33978e+00  5.39183e+00  4.13012e-01 -2.09570e+01  1.17089e+02  1.06319e+06 -1.16226e+06  9.91078e+02  0.00000e+00 -9.80753e+04 -1.12149e+03 -9.91968e+04  4.13011e-01  1.00000e+00  2.09456e+01  0.00000e+00  5.92589e+00 
 6.87356e-03  5.14086e-03  8.28595e-21  3.47944e+00  2.96872e-04  3.60109e+02  3.60063e+02  5.29638e+00  5.34727e+00  4.18893e-01 -2.11147e+01  1.17321e+02  1.10879e+06 -1.20434e+06  9.85487e+02  0.00000e+00 -9.45634e+04 -1.11627e+03 -9.56797e+04  4.18891e-01  1.00000e+00  2.11031e+01  0.00000e+00  6.50970e+00 
 7.05370e-03  5.37934e-03 -1.59677e-20  3.47944e+00  2.95726e-04  3.60108e+02  3.60063e+02  5.25022e+00  5.29985e+00  4.24656e-01 -2.13004e+01  1.17776e+02  1.15858e+06 -1.25134e+06  9.81197e+02  0.00000e+00 -9.17772e+04 -1.11511e+03 -9.28923e+04  4.24656e-01  1.00000e+00  2.12887e+01  0.00000e+00  7.15642e+00 
 7.23722e-03  5.61783e-03  0.00000e+00  3.47944e+00  2.93975e-04  3.60108e+02  3.60064e+02  5.20112e+00  5.24940e+00  4.30270e-01 -2.15275e+01  1.18478e+02  1.21380e+06 -1.30435e+06  9.78301e+02  0.00000e+00 -8.95721e+04 -1.11893e+03 -9.06910e+04  4.30269e-01  1.00000e+00  2.15156e+01  0.00000e+00  7.87739e+00 
 7.42387e-03  5.85632e-03  0.00000e+00  3.47944e+00  2.91588e-04  3.60107e+02  3.60064e+02  5.14877e+00  5.19558e+00  4.35783e-01 -2.18144e+01  1.19449e+02  1.27538e+06 -1.36468e+06  9.76875e+02  0.00000e+00 -8.83197e+04 -1.12866e+03 -8.94484e+04  4.35783e-01  1.00000e+00  2.18023e+01  0.00000e+00  8.68365e+00 
 7.61342e-03  6.09482e-03  0.00000e+00  3.47944e+00  2.88511e-04  3.60107e+02  3.60064e+02  5.09299e+00  5.13823e+00  4.41151e-01 -2.21867e+01  1.20724e+02  1.34528e+06 -1.43405e+06  9.77039e+02  0.00000e+00 -8.77912e+04 -1.14605e+03 -8.89373e+04  4.41150e-01  1.00000e+00  2.21743e+01  0.00000e+00  9.59462e+00 
 7.80566e-03  6.33332e-03  0.00000e+00  3.47944e+00  2.84737e-04  3.60107e+02  3.60064e+02  5.03313e+00  5.07668e+00  4.46444e-01 -2.26784e+01  1.22324e+02  1.42475e+06 -1.51428e+06  9.78806e+02  0.00000e+00 -8.85518e+04 -1.17292e+03 -8.97247e+04  4.46443e-01  1.00000e+00  2.26659e+01  0.00000e+00  1.06273e+01 
 8.00039e-03  6.57182e-03  0.00000e+00  3.47944e+00  2.80189e-04  3.60106e+02  3.60065e+02  4.96930e+00  5.01105e+00  4.51605e-01 -2.33430e+01  1.24311e+02  1.51710e+06 -1.60834e+06  9.82401e+02  0.00000e+00 -9.02585e+04 -1.21288e+03 -9.14714e+04  4.51603e-01  1.00000e+00  2.33301e+01  0.00000e+00  1.18171e+01 
 8.19744e-03  6.81033e-03  1.31016e-20  3.47944e+00  2.74871e-04  3.60106e+02  3.60065e+02  4.89976e+00  4.93958e+00  4.56728e-01 -2.42577e+01  1.26717e+02  1.62430e+06 -1.71920e+06  9.87801e+02  0.00000e+00 -9.39137e+04 -1.27040e+03 -9.51841e+04  4.56727e-01  1.00000e+00  2.42445e+01  0.00000e+00  1.31913e+01 
 8.39664e-03  7.04884e-03  0.00000e+00  3.47944e+00  2.68658e-04  3.60106e+02  3.60065e+02  4.82590e+00  4.86368e+00  4.61751e-01 -2.55447e+01  1.29648e+02  1.75251e+06 -1.85254e+06  9.95495e+02  0.00000e+00 -9.90332e+04 -1.35387e+03 -1.00387e+05  4.61751e-01  1.00000e+00  2.55312e+01  0.00000e+00  1.48202e+01 
 8.59784e-03  7.28736e-03  0.00000e+00  3.47944e+00  2.61554e-04  3.60106e+02  3.60066e+02  4.74276e+00  4.77834e+00  4.66780e-01 -2.74051e+01  1.33170e+02  1.90543e+06 -2.01392e+06  1.00530e+03  0.00000e+00 -1.07484e+05 -1.47589e+03 -1.08960e+05  4.66780e-01  1.00000e+00  2.73912e+01  0.00000e+00  1.67510e+01 
 8.80092e-03  7.52587e-03  0.00000e+00  3.47944e+00  2.53345e-04  3.60107e+02  3.60066e+02  4.65615e+00  4.68942e+00  4.71775e-01 -3.01632e+01  1.37486e+02  2.09582e+06 -2.21556e+06  1.01851e+03  0.00000e+00 -1.18722e+05 -1.65937e+03 -1.20382e+05  4.71776e-01  1.00000e+00  3.01488e+01  0.00000e+00  1.91392e+01 
 9.00573e-03  7.76439e-03 -1.17014e-20  3.47944e+00  2.44017e-04  3.60109e+02  3.60067e+02  4.55194e+00  4.58270e+00  4.76830e-01 -3.44314e+01  1.42743e+02  2.33224e+06 -2.46992e+06  1.03422e+03  0.00000e+00 -1.36643e+05 -1.94583e+03 -1.38589e+05  4.76832e-01  1.00000e+00  3.44164e+01  0.00000e+00  2.20817e+01 
 9.21216e-03  8.00291e-03  0.00000e+00  3.47944e+00  2.33177e-04  3.60111e+02  3.60067e+02  4.44823e+00  4.47641e+00  4.81962e-01 -4.12931e+01  1.49381e+02  2.64560e+06 -2.80753e+06  1.05583e+03  0.00000e+00 -1.60868e+05 -2.41625e+03 -1.63284e+05  4.81965e-01  1.00000e+00  4.12775e+01  0.00000e+00  2.59743e+01 
 9.42012e-03  8.24144e-03  0.00000e+00  3.47944e+00  2.20769e-04  3.60116e+02  3.60068e+02  4.30787e+00  4.33317e+00  4.87242e-01 -5.31052e+01  1.57778e+02  3.06177e+06 -3.26396e+06  1.08084e+03  0.00000e+00 -2.01106e+05 -3.24678e+03 -2.04353e+05  4.87244e-01  1.00000e+00  5.30890e+01  0.00000e+00  3.10937e+01 
 9.62949e-03  8.47996e-03  0.00000e+00  3.47944e+00  2.06039e-04  3.60125e+02  3.60068e+02  4.17640e+00  4.19885e+00  4.92797e-01 -7.50439e+01  1.69060e+02  3.67449e+06 -3.93452e+06  1.11902e+03  0.00000e+00 -2.58913e+05 -4.86112e+03 -2.63774e+05  4.92797e-01  1.00000e+00  7.50267e+01  0.00000e+00  3.86853e+01 
 9.84019e-03  8.71849e-03  0.00000e+00  3.47944e+00  1.88782e-04  3.60142e+02  3.60069e+02  3.96670e+00  3.98588e+00  4.98549e-01 -1.20985e+02  1.84517e+02  4.60196e+06 -4.96449e+06  1.16035e+03  0.00000e+00 -3.61374e+05 -8.45556e+03 -3.69829e+05  4.98549e-01  1.00000e+00  1.20967e+02  0.00000e+00  5.00909e+01 
 1.00521e-02  8.95702e-03  0.00000e+00  3.47944e+00  1.67471e-04  3.60179e+02  3.60070e+02  3.76758e+00  3.78376e+00  5.04724e-01 -2.36442e+02  2.08000e+02  6.28285e+06 -6.79869e+06  1.23218e+03  0.00000e+00 -5.14609e+05 -1.84013e+04 -5.33011e+05  5.04722e-01  1.00000e+00  2.36423e+02  0.00000e+00  7.13697e+01 
 1.02653e-02  9.19555e-03  0.00000e+00  3.47944e+00  1.42097e-04  3.60277e+02  3.60071e+02  3.38366e+00  3.39598e+00  5.11406e-01 -6.21329e+02  2.45148e+02  9.71380e+06 -1.04217e+07  1.29686e+03  0.00000e+00 -7.06589e+05 -5.62493e+04 -7.62839e+05  5.11404e-01  1.00000e+00  6.21308e+02  0.00000e+00  1.17487e+02 
 1.04795e-02  9.43408e-03  0.00000e+00  3.47944e+00  1.14033e-04  3.60692e+02  3.60072e+02  2.85829e+00  2.86413e+00  5.20812e-01 -6.36502e+03  3.05486e+02  1.93190e+07 -1.83401e+07  1.40886e+03  1.08127e+06  2.06152e+06 -2.11353e+06 -5.20107e+04  5.20804e-01  1.00000e+00  6.36499e+03  3.60170e+03  2.94193e+02 
