# Code_Saturne plot output (1D profile)
#
# Iteration output: 4367
# Time output:      2.30003e+01
#
#COLUMN_TITLES: Distance | X | Y | Z | diameter_Field2 | temp_Field1 | temp_Field2 | Velocity_Field1[Z] | Velocity_Field2[Z] | vol_f_Field2 | mass_trans_Field1 | Xd_Field2 | BK | COAL | COMP | NUCL | W1 | MT | SMBR | ALPBB | CONDNUM | GAMA | GAMANUC | epsilon_Field1
 4.56474e-03  1.39645e-04  0.00000e+00  3.47944e+00  1.33469e-04  3.59740e+02  3.60052e+02  4.81675e+00  4.84497e+00  8.89922e-02  6.46173e+01  2.61085e+02  1.90285e+04 -1.01905e+06  1.59228e+03  0.00000e+00 -9.98427e+05  7.63926e+04 -9.22035e+05  8.90151e-02  1.00000e+00 -6.44139e+01  0.00000e+00  5.06214e-01 
 4.57812e-03  3.76525e-04  4.25872e-21  3.47944e+00  1.67800e-04  3.59741e+02  3.60052e+02  4.81609e+00  4.85297e+00  9.00070e-02  4.80346e+01  2.07669e+02  9.55248e+04 -6.97548e+05  1.26785e+03  0.00000e+00 -6.00756e+05  4.46640e+04 -5.56092e+05  9.00290e-02  1.00000e+00 -4.78824e+01  0.00000e+00  5.12912e-01 
 4.60371e-03  6.13858e-04  0.00000e+00  3.47944e+00  1.90350e-04  3.59743e+02  3.60052e+02  4.81454e+00  4.85706e+00  9.18839e-02  4.12730e+01  1.83067e+02  1.71370e+05 -5.77206e+05  1.11871e+03  0.00000e+00 -4.04717e+05  3.31406e+04 -3.71576e+05  9.19062e-02  1.00000e+00 -4.11410e+01  0.00000e+00  5.25949e-01 
 4.64138e-03  8.51483e-04  0.00000e+00  3.47944e+00  2.04044e-04  3.59748e+02  3.60052e+02  4.81232e+00  4.85815e+00  9.46057e-02  3.84243e+01  1.70781e+02  2.26844e+05 -5.32991e+05  1.04411e+03  0.00000e+00 -3.05103e+05  2.79544e+04 -2.77149e+05  9.46290e-02  1.00000e+00 -3.82997e+01  0.00000e+00  5.45581e-01 
 4.69084e-03  1.08931e-03  0.00000e+00  3.47944e+00  2.12574e-04  3.59754e+02  3.60052e+02  4.80933e+00  4.85709e+00  9.82243e-02  3.73009e+01  1.63927e+02  2.71931e+05 -5.23075e+05  1.00233e+03  0.00000e+00 -2.50142e+05  2.50875e+04 -2.25055e+05  9.82488e-02  1.00000e+00 -3.71777e+01  0.00000e+00  5.72197e-01 
 4.75174e-03  1.32727e-03  1.05001e-20  3.47944e+00  2.18130e-04  3.59761e+02  3.60052e+02  4.80555e+00  4.85443e+00  1.02758e-01  3.70551e+01  1.59752e+02  3.14326e+05 -5.32655e+05  9.76627e+02  0.00000e+00 -2.17353e+05  2.32145e+04 -1.94138e+05  1.02783e-01  1.00000e+00 -3.69298e+01  0.00000e+00  6.06407e-01 
 4.82366e-03  1.56534e-03  0.00000e+00  3.47944e+00  2.22003e-04  3.59770e+02  3.60052e+02  4.80092e+00  4.85043e+00  1.08235e-01  3.72839e+01  1.56965e+02  3.58365e+05 -5.55551e+05  9.59317e+02  0.00000e+00 -1.96227e+05  2.17871e+04 -1.74440e+05  1.08261e-01  1.00000e+00 -3.71541e+01  0.00000e+00  6.48977e-01 
 4.90611e-03  1.80349e-03  8.81027e-21  3.47944e+00  2.24957e-04  3.59780e+02  3.60052e+02  4.79536e+00  4.84513e+00  1.14669e-01  3.77566e+01  1.54904e+02  4.06430e+05 -5.88835e+05  9.46360e+02  0.00000e+00 -1.81458e+05  2.05496e+04 -1.60908e+05  1.14696e-01  1.00000e+00 -3.76205e+01  0.00000e+00  7.00869e-01 
 4.99859e-03  2.04170e-03  0.00000e+00  3.47944e+00  2.27465e-04  3.59792e+02  3.60052e+02  4.78879e+00  4.83861e+00  1.22081e-01  3.83246e+01  1.53196e+02  4.59768e+05 -6.31012e+05  9.35402e+02  0.00000e+00 -1.70308e+05  1.93738e+04 -1.50935e+05  1.22108e-01  1.00000e+00 -3.81807e+01  0.00000e+00  7.63210e-01 
 5.10055e-03  2.27996e-03  7.58893e-21  3.47944e+00  2.29836e-04  3.59805e+02  3.60052e+02  4.78108e+00  4.83085e+00  1.30453e-01  3.88682e+01  1.51616e+02  5.19001e+05 -6.81073e+05  9.25038e+02  0.00000e+00 -1.61147e+05  1.81946e+04 -1.42952e+05  1.30483e-01  1.00000e+00 -3.87153e+01  0.00000e+00  8.37458e-01 
 5.21143e-03  2.51826e-03  7.09702e-21  3.47944e+00  2.32286e-04  3.59818e+02  3.60052e+02  4.77209e+00  4.82177e+00  1.39757e-01  3.92868e+01  1.50016e+02  5.84008e+05 -7.38041e+05  9.14453e+02  0.00000e+00 -1.53119e+05  1.69818e+04 -1.36137e+05  1.39787e-01  1.00000e+00 -3.91240e+01  0.00000e+00  9.25090e-01 
 5.33068e-03  2.75659e-03  1.33300e-20  3.47944e+00  2.34978e-04  3.59833e+02  3.60052e+02  4.76166e+00  4.81123e+00  1.49926e-01  3.94824e+01  1.48298e+02  6.54247e+05 -8.00795e+05  9.02979e+02  0.00000e+00 -1.45645e+05  1.57231e+04 -1.29922e+05  1.49954e-01  1.00000e+00 -3.93090e+01  0.00000e+00  1.02785e+00 
 5.45775e-03  2.99495e-03  1.25651e-20  3.47944e+00  2.38040e-04  3.59847e+02  3.60052e+02  4.74959e+00  4.79908e+00  1.60875e-01  3.93812e+01  1.46390e+02  7.28804e+05 -8.67960e+05  8.90272e+02  0.00000e+00 -1.38266e+05  1.44248e+04 -1.23841e+05  1.60889e-01  1.00000e+00 -3.91969e+01  0.00000e+00  1.14782e+00 
 5.59212e-03  3.23333e-03  0.00000e+00  3.47944e+00  2.41578e-04  3.59862e+02  3.60052e+02  4.73567e+00  4.78511e+00  1.72581e-01  3.89416e+01  1.44247e+02  8.06116e+05 -9.38462e+05  8.75774e+02  0.00000e+00 -1.31471e+05  1.30972e+04 -1.18374e+05  1.72594e-01  1.00000e+00 -3.87462e+01  0.00000e+00  1.28709e+00 
 5.73326e-03  3.47172e-03  0.00000e+00  3.47944e+00  2.45658e-04  3.59878e+02  3.60052e+02  4.71968e+00  4.76913e+00  1.84912e-01  3.81205e+01  1.41851e+02  8.84386e+05 -1.01039e+06  8.59487e+02  0.00000e+00 -1.25141e+05  1.17628e+04 -1.13378e+05  1.84924e-01  1.00000e+00 -3.79142e+01  0.00000e+00  1.44786e+00 
 5.88069e-03  3.71014e-03 -5.35987e-21  3.47944e+00  2.50304e-04  3.59893e+02  3.60052e+02  4.70140e+00  4.75090e+00  1.97668e-01  3.68953e+01  1.39218e+02  9.61818e+05 -1.08162e+06  8.41456e+02  0.00000e+00 -1.18965e+05  1.04476e+04 -1.08517e+05  1.97680e-01  1.00000e+00 -3.66786e+01  0.00000e+00  1.63257e+00 
 6.03395e-03  3.94857e-03  5.10973e-21  3.47944e+00  2.55515e-04  3.59908e+02  3.60052e+02  4.68062e+00  4.73024e+00  2.10719e-01  3.52864e+01  1.36379e+02  1.03629e+06 -1.15041e+06  8.21876e+02  0.00000e+00 -1.13307e+05  9.17701e+03 -1.04130e+05  2.10733e-01  1.00000e+00 -3.50601e+01  0.00000e+00  1.84305e+00 
 6.19261e-03  4.18701e-03  0.00000e+00  3.47944e+00  2.61224e-04  3.59922e+02  3.60052e+02  4.65716e+00  4.70695e+00  2.23847e-01  3.33267e+01  1.33399e+02  1.10668e+06 -1.21520e+06  8.00947e+02  0.00000e+00 -1.07725e+05  7.97549e+03 -9.97500e+04  2.23865e-01  1.00000e+00 -3.30919e+01  0.00000e+00  2.08226e+00 
 6.35626e-03  4.42546e-03  0.00000e+00  3.47944e+00  2.67341e-04  3.59937e+02  3.60052e+02  4.63091e+00  4.68091e+00  2.36909e-01  3.10841e+01  1.30347e+02  1.17160e+06 -1.27492e+06  7.79376e+02  0.00000e+00 -1.02538e+05  6.86254e+03 -9.56750e+04  2.36931e-01  1.00000e+00 -3.08417e+01  0.00000e+00  2.35163e+00 
 6.52453e-03  4.66392e-03 -8.96437e-21  3.47944e+00  2.73703e-04  3.59950e+02  3.60052e+02  4.60177e+00  4.65201e+00  2.49722e-01  2.86211e+01  1.27317e+02  1.23111e+06 -1.32927e+06  7.57466e+02  0.00000e+00 -9.73985e+04  5.84996e+03 -9.15485e+04  2.49744e-01  1.00000e+00 -2.83722e+01  0.00000e+00  2.65415e+00 
 6.69707e-03  4.90238e-03  1.72236e-20  3.47944e+00  2.80142e-04  3.59963e+02  3.60052e+02  4.56970e+00  4.62017e+00  2.62206e-01  2.60239e+01  1.24391e+02  1.28539e+06 -1.37872e+06  7.35987e+02  0.00000e+00 -9.25949e+04  4.94410e+03 -8.76508e+04  2.62225e-01  1.00000e+00 -2.57692e+01  0.00000e+00  2.99222e+00 
 6.87356e-03  5.14086e-03  8.28595e-21  3.47944e+00  2.86429e-04  3.59976e+02  3.60052e+02  4.53468e+00  4.58532e+00  2.74305e-01  2.33546e+01  1.21661e+02  1.33568e+06 -1.42477e+06  7.15279e+02  0.00000e+00 -8.83773e+04  4.14270e+03 -8.42346e+04  2.74317e-01  1.00000e+00 -2.30947e+01  0.00000e+00  3.36968e+00 
 7.05370e-03  5.37934e-03 -1.59677e-20  3.47944e+00  2.92344e-04  3.59988e+02  3.60053e+02  4.49666e+00  4.54743e+00  2.85932e-01  2.06704e+01  1.19200e+02  1.38346e+06 -1.46883e+06  6.95916e+02  0.00000e+00 -8.46751e+04  3.44054e+03 -8.12345e+04  2.85941e-01  1.00000e+00 -2.04056e+01  0.00000e+00  3.79005e+00 
 7.23722e-03  5.61783e-03  0.00000e+00  3.47944e+00  2.97626e-04  3.60000e+02  3.60053e+02  4.45564e+00  4.50640e+00  2.97059e-01  1.80051e+01  1.17085e+02  1.43115e+06 -1.51338e+06  6.78185e+02  0.00000e+00 -8.15500e+04  2.82726e+03 -7.87227e+04  2.97067e-01  1.00000e+00 -1.77353e+01  0.00000e+00  4.25987e+00 
 7.42387e-03  5.85632e-03  0.00000e+00  3.47944e+00  3.02086e-04  3.60011e+02  3.60053e+02  4.41145e+00  4.46206e+00  3.07705e-01  1.53803e+01  1.15356e+02  1.48072e+06 -1.56059e+06  6.62428e+02  0.00000e+00 -7.92047e+04  2.29042e+03 -7.69143e+04  3.07707e-01  1.00000e+00 -1.51053e+01  0.00000e+00  4.78531e+00 
 7.61342e-03  6.09482e-03  0.00000e+00  3.47944e+00  3.05479e-04  3.60022e+02  3.60053e+02  4.36399e+00  4.41425e+00  3.17834e-01  1.27964e+01  1.14076e+02  1.53550e+06 -1.61357e+06  6.48757e+02  0.00000e+00 -7.74256e+04  1.81686e+03 -7.56087e+04  3.17834e-01  1.00000e+00 -1.25153e+01  0.00000e+00  5.37841e+00 
 7.80566e-03  6.33332e-03  0.00000e+00  3.47944e+00  3.07701e-04  3.60032e+02  3.60053e+02  4.31281e+00  4.36252e+00  3.27557e-01  1.02395e+01  1.13252e+02  1.59724e+06 -1.67481e+06  6.37309e+02  0.00000e+00 -7.69260e+04  1.39167e+03 -7.55343e+04  3.27555e-01  1.00000e+00 -9.95140e+00  0.00000e+00  6.04937e+00 
 8.00039e-03  6.57182e-03  0.00000e+00  3.47944e+00  3.08531e-04  3.60042e+02  3.60053e+02  4.25785e+00  4.30673e+00  3.36795e-01  7.68124e+00  1.12948e+02  1.67052e+06 -1.74816e+06  6.28080e+02  0.00000e+00 -7.70055e+04  1.00172e+03 -7.60038e+04  3.36791e-01  1.00000e+00 -7.38479e+00  0.00000e+00  6.82072e+00 
 8.19744e-03  6.81033e-03  1.31016e-20  3.47944e+00  3.07969e-04  3.60051e+02  3.60054e+02  4.19802e+00  4.24585e+00  3.45752e-01  5.07530e+00  1.13155e+02  1.75693e+06 -1.83670e+06  6.21091e+02  0.00000e+00 -7.91462e+04  6.31270e+02 -7.85149e+04  3.45747e-01  1.00000e+00 -4.76877e+00  0.00000e+00  7.70976e+00 
 8.39664e-03  7.04884e-03  0.00000e+00  3.47944e+00  3.05780e-04  3.60060e+02  3.60054e+02  4.13376e+00  4.18022e+00  3.54296e-01  2.36176e+00  1.13966e+02  1.86362e+06 -1.94639e+06  6.16342e+02  0.00000e+00 -8.21573e+04  2.65818e+02 -8.18915e+04  3.54289e-01  1.00000e+00 -2.04302e+00  0.00000e+00  8.76048e+00 
 8.59784e-03  7.28736e-03  0.00000e+00  3.47944e+00  3.02038e-04  3.60070e+02  3.60054e+02  4.06217e+00  4.10702e+00  3.62647e-01 -1.32996e+00  1.15378e+02  1.99316e+06 -2.08183e+06  6.13809e+02  0.00000e+00 -8.80499e+04 -2.63692e+02 -8.83136e+04  3.62641e-01  1.00000e+00  2.04907e+00  0.00000e+00  1.00056e+01 
 8.80092e-03  7.52587e-03  0.00000e+00  3.47944e+00  2.96444e-04  3.60079e+02  3.60054e+02  3.98586e+00  4.02874e+00  3.70734e-01 -8.63146e+00  1.17556e+02  2.15811e+06 -2.25478e+06  6.13787e+02  0.00000e+00 -9.60573e+04 -1.20407e+03 -9.72613e+04  3.70726e-01  1.00000e+00  9.38771e+00  0.00000e+00  1.15370e+01 
 9.00573e-03  7.76439e-03 -1.17014e-20  3.47944e+00  2.89025e-04  3.60089e+02  3.60055e+02  3.89648e+00  3.93716e+00  3.78742e-01 -1.74301e+01  1.20574e+02  2.36653e+06 -2.47640e+06  6.15826e+02  0.00000e+00 -1.09259e+05 -2.34774e+03 -1.11607e+05  3.78733e-01  1.00000e+00  1.82316e+01  0.00000e+00  1.34334e+01 
 9.21216e-03  8.00291e-03  0.00000e+00  3.47944e+00  2.79246e-04  3.60100e+02  3.60055e+02  3.80366e+00  3.84180e+00  3.86582e-01 -2.89452e+01  1.24798e+02  2.64775e+06 -2.77528e+06  6.21268e+02  0.00000e+00 -1.26906e+05 -3.89193e+03 -1.30798e+05  3.86572e-01  1.00000e+00  2.98045e+01  0.00000e+00  1.59277e+01 
 9.42012e-03  8.24144e-03  0.00000e+00  3.47944e+00  2.67128e-04  3.60114e+02  3.60055e+02  3.68428e+00  3.71955e+00  3.94545e-01 -4.55043e+01  1.30460e+02  3.02450e+06 -3.18297e+06  6.29426e+02  0.00000e+00 -1.57844e+05 -6.21093e+03 -1.64055e+05  3.94539e-01  1.00000e+00  4.64367e+01  0.00000e+00  1.92241e+01 
 9.62949e-03  8.47996e-03  0.00000e+00  3.47944e+00  2.51688e-04  3.60133e+02  3.60056e+02  3.56176e+00  3.59318e+00  4.02517e-01 -7.21329e+01  1.38465e+02  3.58292e+06 -3.78594e+06  6.44896e+02  0.00000e+00 -2.02380e+05 -1.01806e+04 -2.12560e+05  4.02508e-01  1.00000e+00  7.31647e+01  0.00000e+00  2.40496e+01 
 9.84019e-03  8.71849e-03  0.00000e+00  3.47944e+00  2.32707e-04  3.60164e+02  3.60056e+02  3.38310e+00  3.41101e+00  4.10600e-01 -1.20787e+02  1.49760e+02  4.42683e+06 -4.71375e+06  6.63462e+02  0.00000e+00 -2.86258e+05 -1.79927e+04 -3.04250e+05  4.10593e-01  1.00000e+00  1.21954e+02  0.00000e+00  3.12340e+01 
 1.00521e-02  8.95702e-03  0.00000e+00  3.47944e+00  2.08008e-04  3.60218e+02  3.60057e+02  3.20283e+00  3.22738e+00  4.18882e-01 -2.29086e+02  1.67545e+02  5.97053e+06 -6.38481e+06  6.96315e+02  0.00000e+00 -4.13584e+05 -3.72894e+04 -4.50873e+05  4.18879e-01  1.00000e+00  2.30465e+02  0.00000e+00  4.45251e+01 
 1.02653e-02  9.19555e-03  0.00000e+00  3.47944e+00  1.77069e-04  3.60343e+02  3.60058e+02  2.88125e+00  2.90238e+00  4.27792e-01 -5.45869e+02  1.96823e+02  9.19279e+06 -9.77810e+06  7.29553e+02  0.00000e+00 -5.84578e+05 -1.01922e+05 -6.86500e+05  4.27799e-01  1.00000e+00  5.47593e+02  0.00000e+00  7.37343e+01 
 1.04795e-02  9.43408e-03  0.00000e+00  3.47944e+00  1.40252e-04  3.60780e+02  3.60059e+02  2.41247e+00  2.42494e+00  4.40292e-01 -5.36297e+03  2.48494e+02  1.86212e+07 -1.78808e+07  7.99243e+02  1.66112e+06  2.40234e+06 -2.46314e+06 -6.07943e+04  4.40288e-01  1.00000e+00  5.36531e+03  3.29040e+03  1.86276e+02 
