# Code_Saturne plot output (1D profile)
#
# Iteration output: 11195
# Time output:      2.30001e+01
#
#COLUMN_TITLES: Distance | X | Y | Z | diameter_Field2 | temp_Field1 | temp_Field2 | Velocity_Field1[Z] | Velocity_Field2[Z] | vol_f_Field2 | mass_trans_Field1 | Xd_Field2 | BK | COAL | COMP | NUCL | W1 | MT | SMBR | ALPBB | CONDNUM | GAMA | GAMANUC | epsilon_Field1
 4.56474e-03  1.39645e-04  0.00000e+00  3.47944e+00  1.13441e-03  3.60354e+02  3.60120e+02  8.21542e+00  8.42643e+00  6.59414e-01 -3.31877e+01  3.06138e+01  4.25219e+04 -3.86384e+04  8.30958e+02  0.00000e+00  4.71446e+03 -8.66105e+02  3.84835e+03  6.59418e-01  1.00000e+00  3.31823e+01  0.00000e+00  1.14700e+01 
 4.57812e-03  3.76525e-04  4.25872e-21  3.47944e+00  1.13374e-03  3.60353e+02  3.60120e+02  8.21447e+00  8.42606e+00  6.59411e-01 -3.32127e+01  3.06317e+01  4.26202e+04 -3.85928e+04  8.31480e+02  0.00000e+00  4.85889e+03 -8.67270e+02  3.99162e+03  6.59415e-01  1.00000e+00  3.32073e+01  0.00000e+00  1.15143e+01 
 4.60371e-03  6.13858e-04  0.00000e+00  3.47944e+00  1.13079e-03  3.60353e+02  3.60120e+02  8.21054e+00  8.42241e+00  6.59367e-01 -3.32990e+01  3.07118e+01  4.29199e+04 -3.87994e+04  8.33422e+02  0.00000e+00  4.95395e+03 -8.71853e+02  4.08210e+03  6.59370e-01  1.00000e+00  3.32935e+01  0.00000e+00  1.16013e+01 
 4.64138e-03  8.51483e-04  0.00000e+00  3.47944e+00  1.12543e-03  3.60352e+02  3.60120e+02  8.20509e+00  8.41643e+00  6.59280e-01 -3.34274e+01  3.08580e+01  4.34323e+04 -3.92900e+04  8.36989e+02  0.00000e+00  4.97927e+03 -8.79500e+02  4.09977e+03  6.59282e-01  1.00000e+00  3.34219e+01  0.00000e+00  1.17310e+01 
 4.69084e-03  1.08931e-03  0.00000e+00  3.47944e+00  1.11763e-03  3.60352e+02  3.60120e+02  8.19754e+00  8.40761e+00  6.59162e-01 -3.36074e+01  3.10733e+01  4.41680e+04 -4.00897e+04  8.42196e+02  0.00000e+00  4.92054e+03 -8.90566e+02  4.02998e+03  6.59163e-01  1.00000e+00  3.36018e+01  0.00000e+00  1.19049e+01 
 4.75174e-03  1.32727e-03  1.05001e-20  3.47944e+00  1.10747e-03  3.60351e+02  3.60120e+02  8.18816e+00  8.39636e+00  6.59024e-01 -3.38437e+01  3.13586e+01  4.51351e+04 -4.12123e+04  8.49103e+02  0.00000e+00  4.77188e+03 -9.05251e+02  3.86663e+03  6.59024e-01  1.00000e+00  3.38381e+01  0.00000e+00  1.21248e+01 
 4.82366e-03  1.56534e-03  0.00000e+00  3.47944e+00  1.09513e-03  3.60350e+02  3.60120e+02  8.17672e+00  8.38246e+00  6.58864e-01 -3.41341e+01  3.17119e+01  4.63394e+04 -4.26584e+04  8.57623e+02  0.00000e+00  4.53859e+03 -9.23534e+02  3.61506e+03  6.58863e-01  1.00000e+00  3.41284e+01  0.00000e+00  1.23931e+01 
 4.90611e-03  1.80349e-03  8.81027e-21  3.47944e+00  1.08087e-03  3.60349e+02  3.60120e+02  8.16328e+00  8.36601e+00  6.58732e-01 -3.44742e+01  3.21305e+01  4.77795e+04 -4.44229e+04  8.67656e+02  0.00000e+00  4.22426e+03 -9.45234e+02  3.27903e+03  6.58731e-01  1.00000e+00  3.44684e+01  0.00000e+00  1.27131e+01 
 4.99859e-03  2.04170e-03  0.00000e+00  3.47944e+00  1.06495e-03  3.60347e+02  3.60120e+02  8.14758e+00  8.34665e+00  6.58621e-01 -3.48521e+01  3.26108e+01  4.94613e+04 -4.64983e+04  8.79035e+02  0.00000e+00  3.84201e+03 -9.70045e+02  2.87197e+03  6.58620e-01  1.00000e+00  3.48462e+01  0.00000e+00  1.30879e+01 
 5.10055e-03  2.27996e-03  7.58893e-21  3.47944e+00  1.04763e-03  3.60346e+02  3.60120e+02  8.12972e+00  8.32434e+00  6.58592e-01 -3.52559e+01  3.31500e+01  5.13877e+04 -4.88717e+04  8.91589e+02  0.00000e+00  3.40758e+03 -9.97552e+02  2.41003e+03  6.58591e-01  1.00000e+00  3.52499e+01  0.00000e+00  1.35246e+01 
 5.21143e-03  2.51826e-03  7.09702e-21  3.47944e+00  1.02910e-03  3.60344e+02  3.60121e+02  8.10993e+00  8.30044e+00  6.58623e-01 -3.57345e+01  3.37472e+01  5.35748e+04 -5.15543e+04  9.05476e+02  0.00000e+00  2.92599e+03 -1.02926e+03  1.89673e+03  6.58623e-01  1.00000e+00  3.57284e+01  0.00000e+00  1.40272e+01 
 5.33068e-03  2.75659e-03  1.33300e-20  3.47944e+00  1.00951e-03  3.60342e+02  3.60121e+02  8.08767e+00  8.27477e+00  6.58694e-01 -3.63007e+01  3.44020e+01  5.60489e+04 -5.45419e+04  9.20602e+02  0.00000e+00  2.42755e+03 -1.06574e+03  1.36181e+03  6.58694e-01  1.00000e+00  3.62944e+01  0.00000e+00  1.46054e+01 
 5.45775e-03  2.99495e-03  1.25651e-20  3.47944e+00  9.89102e-04  3.60340e+02  3.60121e+02  8.06257e+00  8.24586e+00  6.58777e-01 -3.69014e+01  3.51120e+01  5.88227e+04 -5.78446e+04  9.36868e+02  0.00000e+00  1.91487e+03 -1.10559e+03  8.09282e+02  6.58780e-01  1.00000e+00  3.68950e+01  0.00000e+00  1.52612e+01 
 5.59212e-03  3.23333e-03  0.00000e+00  3.47944e+00  9.68021e-04  3.60338e+02  3.60121e+02  8.03499e+00  8.21394e+00  6.59043e-01 -3.75298e+01  3.58768e+01  6.18907e+04 -6.14838e+04  9.54190e+02  0.00000e+00  1.36111e+03 -1.14844e+03  2.12669e+02  6.59046e-01  1.00000e+00  3.75232e+01  0.00000e+00  1.60035e+01 
 5.73326e-03  3.47172e-03  0.00000e+00  3.47944e+00  9.46372e-04  3.60336e+02  3.60122e+02  8.00453e+00  8.17889e+00  6.59350e-01 -3.81995e+01  3.66977e+01  6.53050e+04 -6.54742e+04  9.72638e+02  0.00000e+00  8.03407e+02 -1.19513e+03 -3.91722e+02  6.59352e-01  1.00000e+00  3.81926e+01  0.00000e+00  1.68406e+01 
 5.88069e-03  3.71014e-03 -5.35987e-21  3.47944e+00  9.24239e-04  3.60333e+02  3.60122e+02  7.97124e+00  8.14085e+00  6.59859e-01 -3.89179e+01  3.75768e+01  6.90742e+04 -6.98439e+04  9.92221e+02  0.00000e+00  2.22548e+02 -1.24581e+03 -1.02326e+03  6.59860e-01  1.00000e+00  3.89108e+01  0.00000e+00  1.77878e+01 
 6.03395e-03  3.94857e-03  5.10973e-21  3.47944e+00  9.01698e-04  3.60331e+02  3.60122e+02  7.93459e+00  8.09930e+00  6.60538e-01 -3.96924e+01  3.85164e+01  7.32316e+04 -7.46539e+04  1.01269e+03  0.00000e+00 -4.09608e+02 -1.30104e+03 -1.71065e+03  6.60537e-01  1.00000e+00  3.96851e+01  0.00000e+00  1.88511e+01 
 6.19261e-03  4.18701e-03  0.00000e+00  3.47944e+00  8.78806e-04  3.60328e+02  3.60123e+02  7.89493e+00  8.05465e+00  6.61407e-01 -4.05263e+01  3.95200e+01  7.78269e+04 -7.99219e+04  1.03418e+03  0.00000e+00 -1.06079e+03 -1.36120e+03 -2.42199e+03  6.61405e-01  1.00000e+00  4.05188e+01  0.00000e+00  2.00530e+01 
 6.35626e-03  4.42546e-03  0.00000e+00  3.47944e+00  8.55621e-04  3.60326e+02  3.60123e+02  7.85128e+00  8.00592e+00  6.62335e-01 -4.14319e+01  4.05912e+01  8.29233e+04 -8.57355e+04  1.05664e+03  0.00000e+00 -1.75555e+03 -1.42733e+03 -3.18288e+03  6.62334e-01  1.00000e+00  4.14240e+01  0.00000e+00  2.13982e+01 
 6.52453e-03  4.66392e-03 -8.96437e-21  3.47944e+00  8.32188e-04  3.60323e+02  3.60123e+02  7.80449e+00  7.95398e+00  6.63514e-01 -4.24155e+01  4.17345e+01  8.85463e+04 -9.21487e+04  1.08058e+03  0.00000e+00 -2.52181e+03 -1.49970e+03 -4.02151e+03  6.63513e-01  1.00000e+00  4.24074e+01  0.00000e+00  2.29155e+01 
 6.69707e-03  4.90238e-03  1.72236e-20  3.47944e+00  8.08538e-04  3.60321e+02  3.60124e+02  7.75277e+00  7.89703e+00  6.64701e-01 -4.34981e+01  4.29556e+01  9.48151e+04 -9.92520e+04  1.10554e+03  0.00000e+00 -3.33134e+03 -1.58015e+03 -4.91149e+03  6.64701e-01  1.00000e+00  4.34896e+01  0.00000e+00  2.46182e+01 
 6.87356e-03  5.14086e-03  8.28595e-21  3.47944e+00  7.84698e-04  3.60318e+02  3.60124e+02  7.69800e+00  7.83697e+00  6.66151e-01 -4.46907e+01  4.42611e+01  1.01761e+05 -1.07128e+05  1.13224e+03  0.00000e+00 -4.23501e+03 -1.66917e+03 -5.90419e+03  6.66150e-01  1.00000e+00  4.46819e+01  0.00000e+00  2.65462e+01 
 7.05370e-03  5.37934e-03 -1.59677e-20  3.47944e+00  7.60673e-04  3.60316e+02  3.60125e+02  7.63659e+00  7.77020e+00  6.67643e-01 -4.60294e+01  4.56595e+01  1.09527e+05 -1.15949e+05  1.15942e+03  0.00000e+00 -5.26265e+03 -1.76952e+03 -7.03217e+03  6.67643e-01  1.00000e+00  4.60201e+01  0.00000e+00  2.87146e+01 
 7.23722e-03  5.61783e-03  0.00000e+00  3.47944e+00  7.36454e-04  3.60313e+02  3.60125e+02  7.57295e+00  7.70110e+00  6.69540e-01 -4.75324e+01  4.71616e+01  1.18164e+05 -1.25798e+05  1.18782e+03  0.00000e+00 -6.44590e+03 -1.88207e+03 -8.32797e+03  6.69540e-01  1.00000e+00  4.75227e+01  0.00000e+00  3.11983e+01 
 7.42387e-03  5.85632e-03  0.00000e+00  3.47944e+00  7.11995e-04  3.60311e+02  3.60126e+02  7.49978e+00  7.62232e+00  6.71274e-01 -4.92719e+01  4.87824e+01  1.27962e+05 -1.37039e+05  1.21679e+03  0.00000e+00 -7.85948e+03 -2.01278e+03 -9.87226e+03  6.71275e-01  1.00000e+00  4.92617e+01  0.00000e+00  3.39929e+01 
 7.61342e-03  6.09482e-03  0.00000e+00  3.47944e+00  6.87234e-04  3.60309e+02  3.60127e+02  7.42728e+00  7.54415e+00  6.73328e-01 -5.12868e+01  5.05407e+01  1.39043e+05 -1.49804e+05  1.24929e+03  0.00000e+00 -9.51098e+03 -2.16398e+03 -1.16750e+04  6.73331e-01  1.00000e+00  5.12761e+01  0.00000e+00  3.72247e+01 
 7.80566e-03  6.33332e-03  0.00000e+00  3.47944e+00  6.62184e-04  3.60308e+02  3.60127e+02  7.33858e+00  7.44975e+00  6.75060e-01 -5.37197e+01  5.24534e+01  1.51814e+05 -1.64624e+05  1.28004e+03  0.00000e+00 -1.15301e+04 -2.34638e+03 -1.38765e+04  6.75066e-01  1.00000e+00  5.37083e+01  0.00000e+00  4.08869e+01 
 8.00039e-03  6.57182e-03  0.00000e+00  3.47944e+00  6.36715e-04  3.60307e+02  3.60128e+02  7.25662e+00  7.36190e+00  6.77402e-01 -5.66295e+01  5.45523e+01  1.66431e+05 -1.81618e+05  1.31890e+03  0.00000e+00 -1.38680e+04 -2.56357e+03 -1.64315e+04  6.77408e-01  1.00000e+00  5.66175e+01  0.00000e+00  4.52430e+01 
 8.19744e-03  6.81033e-03  1.31016e-20  3.47944e+00  6.10856e-04  3.60306e+02  3.60129e+02  7.14653e+00  7.24602e+00  6.79206e-01 -6.03208e+01  5.68627e+01  1.83600e+05 -2.01928e+05  1.35039e+03  0.00000e+00 -1.69773e+04 -2.83879e+03 -1.98161e+04  6.79211e-01  1.00000e+00  6.03081e+01  0.00000e+00  5.02038e+01 
 8.39664e-03  7.04884e-03  0.00000e+00  3.47944e+00  5.84327e-04  3.60307e+02  3.60130e+02  7.05660e+00  7.15013e+00  6.81684e-01 -6.49368e+01  5.94453e+01  2.03808e+05 -2.25684e+05  1.39699e+03  0.00000e+00 -2.04787e+04 -3.18325e+03 -2.36620e+04  6.81689e-01  1.00000e+00  6.49232e+01  0.00000e+00  5.62807e+01 
 8.59784e-03  7.28736e-03  0.00000e+00  3.47944e+00  5.57206e-04  3.60309e+02  3.60131e+02  6.91249e+00  6.99963e+00  6.83589e-01 -7.11140e+01  6.23400e+01  2.28129e+05 -2.54969e+05  1.43576e+03  0.00000e+00 -2.54041e+04 -3.64569e+03 -2.90498e+04  6.83592e-01  1.00000e+00  7.10996e+01  0.00000e+00  6.33609e+01 
 8.80092e-03  7.52587e-03  0.00000e+00  3.47944e+00  5.28904e-04  3.60313e+02  3.60132e+02  6.81479e+00  6.89578e+00  6.86297e-01 -7.93392e+01  6.56770e+01  2.57968e+05 -2.90612e+05  1.49575e+03  0.00000e+00 -3.11486e+04 -4.26826e+03 -3.54169e+04  6.86299e-01  1.00000e+00  7.93237e+01  0.00000e+00  7.24208e+01 
 9.00573e-03  7.76439e-03 -1.17014e-20  3.47944e+00  4.99689e-04  3.60321e+02  3.60133e+02  6.62061e+00  6.69462e+00  6.88302e-01 -9.11295e+01  6.95188e+01  2.95243e+05 -3.36731e+05  1.53702e+03  0.00000e+00 -3.99506e+04 -5.17434e+03 -4.51249e+04  6.88304e-01  1.00000e+00  9.11127e+01  0.00000e+00  8.33069e+01 
 9.21216e-03  8.00291e-03  0.00000e+00  3.47944e+00  4.68406e-04  3.60332e+02  3.60134e+02  6.51467e+00  6.58228e+00  6.91265e-01 -1.08293e+02  7.41631e+01  3.44186e+05 -3.96081e+05  1.61926e+03  0.00000e+00 -5.02756e+04 -6.53177e+03 -5.68074e+04  6.91267e-01  1.00000e+00  1.08275e+02  0.00000e+00  9.82750e+01 
 9.42012e-03  8.24144e-03  0.00000e+00  3.47944e+00  4.35594e-04  3.60351e+02  3.60136e+02  6.23717e+00  6.29648e+00  6.93497e-01 -1.35378e+02  7.97522e+01  4.09021e+05 -4.79248e+05  1.66651e+03  0.00000e+00 -6.85598e+04 -8.75292e+03 -7.73128e+04  6.93500e-01  1.00000e+00  1.35358e+02  0.00000e+00  1.17249e+02 
 9.62949e-03  8.47996e-03  0.00000e+00  3.47944e+00  3.99189e-04  3.60381e+02  3.60137e+02  6.10831e+00  6.16133e+00  6.96884e-01 -1.80857e+02  8.70270e+01  5.03483e+05 -5.98273e+05  1.78638e+03  0.00000e+00 -9.30035e+04 -1.26989e+04 -1.05702e+05  6.96885e-01  1.00000e+00  1.80835e+02  0.00000e+00  1.46117e+02 
 9.84019e-03  8.71849e-03  0.00000e+00  3.47944e+00  3.59699e-04  3.60435e+02  3.60139e+02  5.70478e+00  5.74859e+00  6.99477e-01 -2.66517e+02  9.65854e+01  6.46432e+05 -7.84242e+05  1.84653e+03  0.00000e+00 -1.35964e+05 -2.06922e+04 -1.56656e+05  6.99475e-01  1.00000e+00  2.66491e+02  0.00000e+00  1.88591e+02 
 1.00521e-02  8.95702e-03  0.00000e+00  3.47944e+00  3.13821e-04  3.60538e+02  3.60140e+02  5.49093e+00  5.52944e+00  7.03866e-01 -4.56647e+02  1.10708e+02  9.01130e+05 -1.09268e+06  2.03375e+03  0.00000e+00 -1.89521e+05 -4.03864e+04 -2.29907e+05  7.03836e-01  1.00000e+00  4.56616e+02  0.00000e+00  2.69712e+02 
 1.02653e-02  9.19555e-03  0.00000e+00  3.47944e+00  2.61479e-04  3.60783e+02  3.60143e+02  4.81949e+00  4.84990e+00  7.06674e-01 -1.00608e+03  1.32876e+02  1.43407e+06 -1.64473e+06  2.12061e+03  0.00000e+00 -2.08546e+05 -1.06376e+05 -3.14923e+05  7.06611e-01  1.00000e+00  1.00604e+03  0.00000e+00  4.47799e+02 
 1.04795e-02  9.43408e-03  0.00000e+00  3.47944e+00  2.06858e-04  3.61628e+02  3.60146e+02  4.09118e+00  4.11440e+00  7.13448e-01 -7.93468e+03  1.67970e+02  2.84362e+06 -1.97860e+06  2.31193e+03  9.11626e+05  1.77895e+06 -1.75418e+06  2.47760e+04  7.13402e-01  1.00000e+00  7.93463e+03  4.48452e+03  1.14272e+03 
