# Code_Saturne plot output (1D profile)
#
# Iteration output: 2312
# Time output:      2.30028e+01
#
#COLUMN_TITLES: Distance | X | Y | Z | diameter_Field2 | temp_Field1 | temp_Field2 | Velocity_Field1[Z] | Velocity_Field2[Z] | vol_f_Field2 | mass_trans_Field1 | Xd_Field2 | BK | COAL | COMP | NUCL | W1 | MT | SMBR | ALPBB | CONDNUM | GAMA | GAMANUC | epsilon_Field1
 4.56474e-03  1.39645e-04  0.00000e+00  3.47944e+00  2.32437e-05  3.59069e+02  3.60048e+02  4.24482e+00  4.24641e+00  5.22975e-03  1.26805e+02  1.49954e+03  7.06250e-70 -3.81197e+05  7.45521e+03  0.00000e+00 -3.73742e+05  1.32808e+07  1.29071e+07  5.22978e-03  1.00000e+00 -1.26796e+02  0.00000e+00  3.49875e-01 
 4.57812e-03  3.76525e-04  4.25872e-21  3.47944e+00  3.26326e-05  3.59071e+02  3.60048e+02  4.24457e+00  4.24725e+00  6.12932e-03  9.37655e+01  1.06810e+03  1.05562e-35 -2.52554e+05  5.26097e+03  0.00000e+00 -2.47293e+05  5.96854e+06  5.72125e+06  6.12918e-03  1.00000e+00 -9.37590e+01  0.00000e+00  3.53061e-01 
 4.60371e-03  6.13858e-04  0.00000e+00  3.47944e+00  4.13630e-05  3.59077e+02  3.60048e+02  4.24354e+00  4.24736e+00  7.16852e-03  7.95944e+01  8.42658e+02  4.58293e-21 -1.98731e+05  4.15225e+03  0.00000e+00 -1.94579e+05  3.41756e+06  3.22298e+06  7.16825e-03  1.00000e+00 -7.95889e+01  0.00000e+00  3.59219e-01 
 4.64138e-03  8.51483e-04  0.00000e+00  3.47944e+00  4.93895e-05  3.59087e+02  3.60048e+02  4.24193e+00  4.24693e+00  8.27466e-03  7.18705e+01  7.05713e+02  2.42904e-13 -1.71110e+05  3.48046e+03  0.00000e+00 -1.67629e+05  2.23894e+06  2.07131e+06  8.27431e-03  1.00000e+00 -7.18655e+01  0.00000e+00  3.68412e-01 
 4.69084e-03  1.08931e-03  0.00000e+00  3.47944e+00  5.69531e-05  3.59100e+02  3.60048e+02  4.23968e+00  4.24612e+00  9.53877e-03  6.65831e+01  6.11991e+02  1.35592e-08 -1.56414e+05  3.01952e+03  0.00000e+00 -1.53394e+05  1.56039e+06  1.40699e+06  9.53835e-03  1.00000e+00 -6.65784e+01  0.00000e+00  3.80759e-01 
 4.75174e-03  1.32727e-03  1.05001e-20  3.47944e+00  6.41024e-05  3.59117e+02  3.60048e+02  4.23677e+00  4.24459e+00  1.10959e-02  6.45019e+01  5.43737e+02  2.00427e-05 -1.50660e+05  2.68342e+03  0.00000e+00 -1.47977e+05  1.15455e+06  1.00657e+06  1.10955e-02  1.00000e+00 -6.44972e+01  0.00000e+00  3.96487e-01 
 4.82366e-03  1.56534e-03  0.00000e+00  3.47944e+00  7.09346e-05  3.59137e+02  3.60048e+02  4.23321e+00  4.24236e+00  1.29829e-02  6.41218e+01  4.91366e+02  3.63465e-03 -1.50555e+05  2.42530e+03  0.00000e+00 -1.48130e+05  8.86451e+05  7.38320e+05  1.29824e-02  1.00000e+00 -6.41170e+01  0.00000e+00  4.15870e-01 
 4.90611e-03  1.80349e-03  8.81027e-21  3.47944e+00  7.75811e-05  3.59161e+02  3.60048e+02  4.22896e+00  4.23944e+00  1.52420e-02  6.47911e+01  4.49270e+02  1.79860e-01 -1.54309e+05  2.21752e+03  0.00000e+00 -1.52091e+05  6.97581e+05  5.45490e+05  1.52415e-02  1.00000e+00 -6.47861e+01  0.00000e+00  4.39242e-01 
 4.99859e-03  2.04170e-03  0.00000e+00  3.47944e+00  8.41343e-05  3.59188e+02  3.60048e+02  4.22400e+00  4.23580e+00  1.79249e-02  6.61614e+01  4.14276e+02  3.72127e+00 -1.61045e+05  2.04446e+03  0.00000e+00 -1.58997e+05  5.58540e+05  3.99543e+05  1.79243e-02  1.00000e+00 -6.61563e+01  0.00000e+00  4.67046e-01 
 5.10055e-03  2.27996e-03  7.58893e-21  3.47944e+00  9.06360e-05  3.59219e+02  3.60048e+02  4.21830e+00  4.23140e+00  2.10905e-02  6.80338e+01  3.84559e+02  4.11246e+01 -1.70405e+05  1.89712e+03  0.00000e+00 -1.68467e+05  4.53122e+05  2.84655e+05  2.10899e-02  1.00000e+00 -6.80283e+01  0.00000e+00  4.99910e-01 
 5.21143e-03  2.51826e-03  7.09702e-21  3.47944e+00  9.70810e-05  3.59253e+02  3.60048e+02  4.21181e+00  4.22619e+00  2.48051e-02  7.02975e+01  3.59029e+02  2.82415e+02 -1.82353e+05  1.77014e+03  0.00000e+00 -1.80301e+05  3.71653e+05  1.91352e+05  2.48044e-02  1.00000e+00 -7.02916e+01  0.00000e+00  5.38601e-01 
 5.33068e-03  2.75659e-03  1.33300e-20  3.47944e+00  1.03424e-04  3.59290e+02  3.60048e+02  4.20448e+00  4.22008e+00  2.91419e-02  7.28983e+01  3.37009e+02  1.33380e+03 -1.97109e+05  1.66023e+03  0.00000e+00 -1.94115e+05  3.07927e+05  1.13812e+05  2.91412e-02  1.00000e+00 -7.28919e+01  0.00000e+00  5.84041e-01 
 5.45775e-03  2.99495e-03  1.25651e-20  3.47944e+00  1.09576e-04  3.59329e+02  3.60048e+02  4.19623e+00  4.21299e+00  3.41804e-02  7.58200e+01  3.18090e+02  4.66194e+03 -2.15125e+05  1.56536e+03  0.00000e+00 -2.08898e+05  2.57728e+05  4.88302e+04  3.41796e-02  1.00000e+00 -7.58130e+01  0.00000e+00  6.37339e-01 
 5.59212e-03  3.23333e-03  0.00000e+00  3.47944e+00  1.15412e-04  3.59370e+02  3.60048e+02  4.18698e+00  4.20479e+00  4.00055e-02  7.90719e+01  3.02005e+02  1.27662e+04 -2.37098e+05  1.48422e+03  0.00000e+00 -2.22847e+05  2.18032e+05 -4.81473e+03  4.00046e-02  1.00000e+00 -7.90642e+01  0.00000e+00  6.99817e-01 
 5.73326e-03  3.47172e-03  0.00000e+00  3.47944e+00  1.20796e-04  3.59413e+02  3.60048e+02  4.17662e+00  4.19537e+00  4.67042e-02  8.26652e+01  2.88543e+02  2.87144e+04 -2.63945e+05  1.41572e+03  0.00000e+00 -2.33814e+05  1.86543e+05 -4.72714e+04  4.67033e-02  1.00000e+00 -8.26566e+01  0.00000e+00  7.73053e-01 
 5.88069e-03  3.71014e-03 -5.35987e-21  3.47944e+00  1.25615e-04  3.59457e+02  3.60048e+02  4.16505e+00  4.18459e+00  5.43641e-02  8.65855e+01  2.77475e+02  5.52493e+04 -2.96753e+05  1.35870e+03  0.00000e+00 -2.40145e+05  1.61419e+05 -7.87261e+04  5.43631e-02  1.00000e+00 -8.65759e+01  0.00000e+00  8.58916e-01 
 6.03395e-03  3.94857e-03  5.10973e-21  3.47944e+00  1.29806e-04  3.59503e+02  3.60048e+02  4.15212e+00  4.17229e+00  6.30669e-02  9.06964e+01  2.68515e+02  9.41632e+04 -3.36678e+05  1.31172e+03  0.00000e+00 -2.41203e+05  1.41044e+05 -1.00160e+05  6.30657e-02  1.00000e+00 -9.06856e+01  0.00000e+00  9.59623e-01 
 6.19261e-03  4.18701e-03  0.00000e+00  3.47944e+00  1.33377e-04  3.59548e+02  3.60048e+02  4.13768e+00  4.15833e+00  7.28864e-02  9.37842e+01  2.61327e+02  1.46294e+05 -3.84862e+05  1.27304e+03  0.00000e+00 -2.37296e+05  1.22817e+05 -1.14478e+05  7.28850e-02  1.00000e+00 -9.37721e+01  0.00000e+00  1.07778e+00 
 6.35626e-03  4.42546e-03  0.00000e+00  3.47944e+00  1.36371e-04  3.59594e+02  3.60049e+02  4.12151e+00  4.14253e+00  8.38698e-02  9.65169e+01  2.55590e+02  2.11776e+05 -4.42406e+05  1.24103e+03  0.00000e+00 -2.29389e+05  1.07431e+05 -1.21959e+05  8.38682e-02  1.00000e+00 -9.65035e+01  0.00000e+00  1.21648e+00 
 6.52453e-03  4.66392e-03 -8.96437e-21  3.47944e+00  1.38876e-04  3.59638e+02  3.60049e+02  4.10340e+00  4.12458e+00  9.60447e-02  9.86316e+01  2.50980e+02  2.90433e+05 -5.10271e+05  1.21405e+03  0.00000e+00 -2.18624e+05  9.41373e+04 -1.24487e+05  9.60428e-02  1.00000e+00 -9.86165e+01  0.00000e+00  1.37930e+00 
 6.69707e-03  4.90238e-03  1.72236e-20  3.47944e+00  1.41006e-04  3.59682e+02  3.60049e+02  4.08309e+00  4.10429e+00  1.09399e-01  9.98474e+01  2.47189e+02  3.81966e+05 -5.89101e+05  1.19044e+03  0.00000e+00 -2.05945e+05  8.23998e+04 -1.23545e+05  1.09397e-01  1.00000e+00 -9.98306e+01  0.00000e+00  1.57047e+00 
 6.87356e-03  5.14086e-03  8.28595e-21  3.47944e+00  1.42881e-04  3.59724e+02  3.60049e+02  4.06028e+00  4.08145e+00  1.23888e-01  9.99079e+01  2.43946e+02  4.85842e+05 -6.79208e+05  1.16889e+03  0.00000e+00 -1.92196e+05  7.18500e+04 -1.20346e+05  1.23886e-01  1.00000e+00 -9.98892e+01  0.00000e+00  1.79480e+00 
 7.05370e-03  5.37934e-03 -1.59677e-20  3.47944e+00  1.44611e-04  3.59764e+02  3.60049e+02  4.03459e+00  4.05569e+00  1.39414e-01  9.85964e+01  2.41028e+02  6.01179e+05 -7.80384e+05  1.14819e+03  0.00000e+00 -1.78057e+05  6.22553e+04 -1.15802e+05  1.39411e-01  1.00000e+00 -9.85757e+01  0.00000e+00  2.05786e+00 
 7.23722e-03  5.61783e-03  0.00000e+00  3.47944e+00  1.46290e-04  3.59801e+02  3.60049e+02  4.00566e+00  4.02662e+00  1.55841e-01  9.57854e+01  2.38261e+02  7.26586e+05 -8.91949e+05  1.12740e+03  0.00000e+00 -1.64235e+05  5.34829e+04 -1.10752e+05  1.55838e-01  1.00000e+00 -9.57628e+01  0.00000e+00  2.36586e+00 
 7.42387e-03  5.85632e-03  0.00000e+00  3.47944e+00  1.47990e-04  3.59836e+02  3.60049e+02  3.97308e+00  3.99385e+00  1.72985e-01  9.14490e+01  2.35525e+02  8.60231e+05 -1.01273e+06  1.10588e+03  0.00000e+00 -1.51391e+05  4.54712e+04 -1.05919e+05  1.72982e-01  1.00000e+00 -9.14244e+01  0.00000e+00  2.72588e+00 
 7.61342e-03  6.09482e-03  0.00000e+00  3.47944e+00  1.49750e-04  3.59869e+02  3.60049e+02  3.93641e+00  3.95696e+00  1.90619e-01  8.56666e+01  2.32758e+02  9.99983e+05 -1.14115e+06  1.08325e+03  0.00000e+00 -1.40084e+05  3.81997e+04 -1.01884e+05  1.90616e-01  1.00000e+00 -8.56402e+01  0.00000e+00  3.14588e+00 
 7.80566e-03  6.33332e-03  0.00000e+00  3.47944e+00  1.51575e-04  3.59898e+02  3.60049e+02  3.89527e+00  3.91554e+00  2.08531e-01  7.86335e+01  2.29955e+02  1.14368e+06 -1.27584e+06  1.05944e+03  0.00000e+00 -1.31099e+05  3.16642e+04 -9.94346e+04  2.08528e-01  1.00000e+00 -7.86052e+01  0.00000e+00  3.63498e+00 
 8.00039e-03  6.57182e-03  0.00000e+00  3.47944e+00  1.53426e-04  3.59925e+02  3.60049e+02  3.84924e+00  3.86921e+00  2.26424e-01  7.05954e+01  2.27181e+02  1.28991e+06 -1.41548e+06  1.03465e+03  0.00000e+00 -1.24536e+05  2.58633e+04 -9.86729e+04  2.26422e-01  1.00000e+00 -7.05655e+01  0.00000e+00  4.20457e+00 
 8.19744e-03  6.81033e-03  1.31016e-20  3.47944e+00  1.55227e-04  3.59949e+02  3.60049e+02  3.79798e+00  3.81761e+00  2.44163e-01  6.18632e+01  2.24547e+02  1.43793e+06 -1.56047e+06  1.00933e+03  0.00000e+00 -1.21534e+05  2.07721e+04 -1.00762e+05  2.44161e-01  1.00000e+00 -6.18317e+01  0.00000e+00  4.86848e+00 
 8.39664e-03  7.04884e-03  0.00000e+00  3.47944e+00  1.56838e-04  3.59971e+02  3.60049e+02  3.74102e+00  3.76025e+00  2.61433e-01  5.26915e+01  2.22242e+02  1.58947e+06 -1.71197e+06  9.84178e+02  0.00000e+00 -1.21515e+05  1.63520e+04 -1.05163e+05  2.61433e-01  1.00000e+00 -5.26585e+01  0.00000e+00  5.64751e+00 
 8.59784e-03  7.28736e-03  0.00000e+00  3.47944e+00  1.58105e-04  3.59991e+02  3.60050e+02  3.67793e+00  3.69670e+00  2.78254e-01  4.33005e+01  2.20462e+02  1.74721e+06 -1.87453e+06  9.59921e+02  0.00000e+00 -1.26358e+05  1.25219e+04 -1.13836e+05  2.78259e-01  1.00000e+00 -4.32662e+01  0.00000e+00  6.56866e+00 
 8.80092e-03  7.52587e-03  0.00000e+00  3.47944e+00  1.58793e-04  3.60009e+02  3.60050e+02  3.60802e+00  3.62625e+00  2.94380e-01  3.37616e+01  2.19507e+02  1.91894e+06 -2.05498e+06  9.36868e+02  0.00000e+00 -1.35105e+05  9.18595e+03 -1.25919e+05  2.94391e-01  1.00000e+00 -3.37258e+01  0.00000e+00  7.68003e+00 
 9.00573e-03  7.76439e-03 -1.17014e-20  3.47944e+00  1.58694e-04  3.60025e+02  3.60050e+02  3.52984e+00  3.54741e+00  3.10036e-01  2.39833e+01  2.19644e+02  2.11298e+06 -2.26514e+06  9.17456e+02  0.00000e+00 -1.51237e+05  6.19685e+03 -1.45040e+05  3.10042e-01  1.00000e+00 -2.39462e+01  0.00000e+00  9.04499e+00 
 9.21216e-03  8.00291e-03  0.00000e+00  3.47944e+00  1.57491e-04  3.60041e+02  3.60050e+02  3.44264e+00  3.45940e+00  3.25048e-01  1.36011e+01  2.21324e+02  2.34895e+06 -2.52364e+06  9.00753e+02  0.00000e+00 -1.73785e+05  3.37319e+03 -1.70411e+05  3.25055e-01  1.00000e+00 -1.35623e+01  0.00000e+00  1.07923e+01 
 9.42012e-03  8.24144e-03  0.00000e+00  3.47944e+00  1.54955e-04  3.60057e+02  3.60051e+02  3.34085e+00  3.35666e+00  3.39769e-01  1.77686e+00  2.24947e+02  2.64775e+06 -2.85751e+06  8.87830e+02  0.00000e+00 -2.08877e+05  4.19868e+02 -2.08457e+05  3.39779e-01  1.00000e+00 -1.73618e+00  0.00000e+00  1.30966e+01 
 9.62949e-03  8.47996e-03  0.00000e+00  3.47944e+00  1.50696e-04  3.60073e+02  3.60051e+02  3.22599e+00  3.24068e+00  3.54030e-01 -2.85581e+01  2.31306e+02  3.06420e+06 -3.31760e+06  8.79338e+02  0.00000e+00 -2.52519e+05 -6.83146e+03 -2.59350e+05  3.54046e-01  1.00000e+00  2.86257e+01  0.00000e+00  1.63883e+01 
 9.84019e-03  8.71849e-03  0.00000e+00  3.47944e+00  1.44414e-04  3.60096e+02  3.60051e+02  3.07877e+00  3.09227e+00  3.68117e-01 -8.03315e+01  2.41370e+02  3.67555e+06 -3.98647e+06  8.74528e+02  0.00000e+00 -3.10043e+05 -1.92566e+04 -3.29300e+05  3.68130e-01  1.00000e+00  8.04019e+01  0.00000e+00  2.13815e+01 
 1.00521e-02  8.95702e-03  0.00000e+00  3.47944e+00  1.35676e-04  3.60135e+02  3.60052e+02  2.90406e+00  2.91636e+00  3.81874e-01 -1.90525e+02  2.56919e+02  4.71224e+06 -5.05304e+06  8.72322e+02  0.00000e+00 -3.39926e+05 -4.68398e+04 -3.86766e+05  3.81884e-01  1.00000e+00  1.90599e+02  0.00000e+00  3.03817e+01 
 1.02653e-02  9.19555e-03  0.00000e+00  3.47944e+00  1.25313e-04  3.60233e+02  3.60052e+02  2.63414e+00  2.64483e+00  3.96146e-01 -5.11610e+02  2.78168e+02  6.64227e+06 -6.80772e+06  8.50581e+02  0.00000e+00 -1.64605e+05 -1.31243e+05 -2.95848e+05  3.96155e-01  1.00000e+00  5.11688e+02  0.00000e+00  5.01853e+01 
 1.04795e-02  9.43408e-03  0.00000e+00  3.47944e+00  1.18039e-04  3.60626e+02  3.60053e+02  2.20478e+00  2.21236e+00  4.11444e-01 -5.07377e+03  2.95313e+02  1.10300e+07 -9.20703e+06  7.85607e+02  9.61426e+05  2.78517e+06 -2.84124e+06 -5.60714e+04  4.11445e-01  1.00000e+00  5.07385e+03  3.15777e+03  1.25765e+02 
