# Code_Saturne plot output (1D profile)
#
# Iteration output: 2370
# Time output:      2.30051e+01
#
#COLUMN_TITLES: Distance | X | Y | Z | diameter_Field2 | temp_Field1 | temp_Field2 | Velocity_Field1[Z] | Velocity_Field2[Z] | vol_f_Field2 | mass_trans_Field1 | Xd_Field2 | BK | COAL | COMP | NUCL | W1 | MT | SMBR | ALPBB | CONDNUM | GAMA | GAMANUC | epsilon_Field1
 4.56474e-03  1.39645e-04  0.00000e+00  3.47944e+00  1.07022e-04  3.59341e+02  3.60051e+02  4.51721e+00  4.53651e+00  4.30255e-02  8.91604e+01  3.25640e+02  4.02370e+02 -6.39654e+05  1.83172e+03  0.00000e+00 -6.37419e+05  1.42371e+05 -4.95048e+05  4.30256e-02  1.00000e+00 -8.91555e+01  0.00000e+00  4.33380e-01 
 4.57812e-03  3.76525e-04  4.25872e-21  3.47944e+00  1.28418e-04  3.59344e+02  3.60051e+02  4.51667e+00  4.54089e+00  4.36742e-02  7.06982e+01  2.71383e+02  5.34393e+03 -4.76443e+05  1.52674e+03  0.00000e+00 -4.69572e+05  9.26853e+04 -3.76887e+05  4.36740e-02  1.00000e+00 -7.06943e+01  0.00000e+00  4.38429e-01 
 4.60371e-03  6.13858e-04  0.00000e+00  3.47944e+00  1.45752e-04  3.59349e+02  3.60051e+02  4.51516e+00  4.54327e+00  4.49204e-02  6.12432e+01  2.39110e+02  2.00692e+04 -3.96840e+05  1.34563e+03  0.00000e+00 -3.75425e+05  6.87790e+04 -3.06646e+05  4.49202e-02  1.00000e+00 -6.12398e+01  0.00000e+00  4.48347e-01 
 4.64138e-03  8.51483e-04  0.00000e+00  3.47944e+00  1.58902e-04  3.59357e+02  3.60051e+02  4.51295e+00  4.54389e+00  4.67581e-02  5.65869e+01  2.19321e+02  4.25570e+04 -3.59590e+05  1.23436e+03  0.00000e+00 -3.15799e+05  5.59995e+04 -2.59800e+05  4.67580e-02  1.00000e+00 -5.65837e+01  0.00000e+00  4.63322e-01 
 4.69084e-03  1.08931e-03  0.00000e+00  3.47944e+00  1.68922e-04  3.59368e+02  3.60051e+02  4.50997e+00  4.54297e+00  4.92067e-02  5.45521e+01  2.06312e+02  6.96089e+04 -3.45100e+05  1.16093e+03  0.00000e+00 -2.74330e+05  4.82564e+04 -2.26074e+05  4.92067e-02  1.00000e+00 -5.45490e+01  0.00000e+00  4.83654e-01 
 4.75174e-03  1.32727e-03  1.05001e-20  3.47944e+00  1.76612e-04  3.59382e+02  3.60051e+02  4.50624e+00  4.54071e+00  5.23033e-02  5.41644e+01  1.97329e+02  9.97899e+04 -3.45246e+05  1.10992e+03  0.00000e+00 -2.44346e+05  4.31139e+04 -2.01232e+05  5.23034e-02  1.00000e+00 -5.41613e+01  0.00000e+00  5.09748e-01 
 4.82366e-03  1.56534e-03  0.00000e+00  3.47944e+00  1.82601e-04  3.59399e+02  3.60051e+02  4.50173e+00  4.53722e+00  5.60868e-02  5.49055e+01  1.90856e+02  1.33109e+05 -3.56202e+05  1.07284e+03  0.00000e+00 -2.22020e+05  3.94185e+04 -1.82602e+05  5.60873e-02  1.00000e+00 -5.49022e+01  0.00000e+00  5.42145e-01 
 4.90611e-03  1.80349e-03  8.81027e-21  3.47944e+00  1.87383e-04  3.59419e+02  3.60051e+02  4.49640e+00  4.53262e+00  6.06054e-02  5.64686e+01  1.85986e+02  1.70256e+05 -3.76112e+05  1.04459e+03  0.00000e+00 -2.04811e+05  3.65606e+04 -1.68251e+05  6.06061e-02  1.00000e+00 -5.64651e+01  0.00000e+00  5.81516e-01 
 4.99859e-03  2.04170e-03  0.00000e+00  3.47944e+00  1.91340e-04  3.59441e+02  3.60051e+02  4.49020e+00  4.52693e+00  6.59060e-02  5.83782e+01  1.82140e+02  2.12126e+05 -4.04056e+05  1.02194e+03  0.00000e+00 -1.90908e+05  3.40381e+04 -1.56870e+05  6.59070e-02  1.00000e+00 -5.83745e+01  0.00000e+00  6.28686e-01 
 5.10055e-03  2.27996e-03  7.58893e-21  3.47944e+00  1.94771e-04  3.59465e+02  3.60051e+02  4.48308e+00  4.52017e+00  7.20359e-02  6.04899e+01  1.78932e+02  2.59561e+05 -4.39604e+05  1.00272e+03  0.00000e+00 -1.79040e+05  3.16996e+04 -1.47341e+05  7.20371e-02  1.00000e+00 -6.04860e+01  0.00000e+00  6.84637e-01 
 5.21143e-03  2.51826e-03  7.09702e-21  3.47944e+00  1.97908e-04  3.59491e+02  3.60051e+02  4.47495e+00  4.51232e+00  7.90358e-02  6.27766e+01  1.76095e+02  3.13192e+05 -4.82525e+05  9.85414e+02  0.00000e+00 -1.68348e+05  2.95088e+04 -1.38839e+05  7.90370e-02  1.00000e+00 -6.27723e+01  0.00000e+00  7.50536e-01 
 5.33068e-03  2.75659e-03  1.33300e-20  3.47944e+00  2.00947e-04  3.59518e+02  3.60051e+02  4.46570e+00  4.50333e+00  8.69372e-02  6.50729e+01  1.73432e+02  3.73352e+05 -5.32593e+05  9.68906e+02  0.00000e+00 -1.58272e+05  2.73877e+04 -1.30884e+05  8.69382e-02  1.00000e+00 -6.50683e+01  0.00000e+00  8.27744e-01 
 5.45775e-03  2.99495e-03  1.25651e-20  3.47944e+00  2.04056e-04  3.59547e+02  3.60051e+02  4.45522e+00  4.49305e+00  9.57605e-02  6.72105e+01  1.70790e+02  4.39983e+05 -5.89440e+05  9.52335e+02  0.00000e+00 -1.48505e+05  2.52898e+04 -1.23215e+05  9.57614e-02  1.00000e+00 -6.72054e+01  0.00000e+00  9.17833e-01 
 5.59212e-03  3.23333e-03  0.00000e+00  3.47944e+00  2.07386e-04  3.59577e+02  3.60051e+02  4.44336e+00  4.48137e+00  1.05504e-01  6.90170e+01  1.68048e+02  5.12566e+05 -6.52394e+05  9.34982e+02  0.00000e+00 -1.38893e+05  2.31926e+04 -1.15700e+05  1.05505e-01  1.00000e+00 -6.90116e+01  0.00000e+00  1.02261e+00 
 5.73326e-03  3.47172e-03  0.00000e+00  3.47944e+00  2.11077e-04  3.59607e+02  3.60051e+02  4.42994e+00  4.46821e+00  1.16151e-01  7.03317e+01  1.65109e+02  5.90049e+05 -7.20440e+05  9.16313e+02  0.00000e+00 -1.29475e+05  2.10923e+04 -1.08382e+05  1.16153e-01  1.00000e+00 -7.03258e+01  0.00000e+00  1.14412e+00 
 5.88069e-03  3.71014e-03 -5.35987e-21  3.47944e+00  2.15256e-04  3.59637e+02  3.60051e+02  4.41478e+00  4.45336e+00  1.27644e-01  7.09979e+01  1.61904e+02  6.70863e+05 -7.92064e+05  8.95934e+02  0.00000e+00 -1.20306e+05  1.89987e+04 -1.01307e+05  1.27646e-01  1.00000e+00 -7.09915e+01  0.00000e+00  1.28465e+00 
 6.03395e-03  3.94857e-03  5.10973e-21  3.47944e+00  2.20029e-04  3.59667e+02  3.60051e+02  4.39763e+00  4.43661e+00  1.39916e-01  7.08990e+01  1.58391e+02  7.52928e+05 -8.65466e+05  8.73606e+02  0.00000e+00 -1.11664e+05  1.69326e+04 -9.47314e+04  1.39919e-01  1.00000e+00 -7.08921e+01  0.00000e+00  1.44667e+00 
 6.19261e-03  4.18701e-03  0.00000e+00  3.47944e+00  2.25473e-04  3.59697e+02  3.60051e+02  4.37828e+00  4.41773e+00  1.52835e-01  6.99498e+01  1.54567e+02  8.33933e+05 -9.38401e+05  8.49295e+02  0.00000e+00 -1.03619e+05  1.49243e+04 -8.86946e+04  1.52839e-01  1.00000e+00 -6.99426e+01  0.00000e+00  1.63290e+00 
 6.35626e-03  4.42546e-03  0.00000e+00  3.47944e+00  2.31629e-04  3.59727e+02  3.60051e+02  4.35644e+00  4.39645e+00  1.66268e-01  6.81272e+01  1.50460e+02  9.11444e+05 -1.00862e+06  8.23178e+02  0.00000e+00 -9.63537e+04  1.30063e+04 -8.33474e+04  1.66266e-01  1.00000e+00 -6.81196e+01  0.00000e+00  1.84610e+00 
 6.52453e-03  4.66392e-03 -8.96437e-21  3.47944e+00  2.38483e-04  3.59755e+02  3.60051e+02  4.33190e+00  4.37254e+00  1.80043e-01  6.54789e+01  1.46135e+02  9.83392e+05 -1.07426e+06  7.95583e+02  0.00000e+00 -9.00736e+04  1.12124e+04 -7.88613e+04  1.80043e-01  1.00000e+00 -6.54709e+01  0.00000e+00  2.08933e+00 
 6.69707e-03  4.90238e-03  1.72236e-20  3.47944e+00  2.45971e-04  3.59783e+02  3.60051e+02  4.30443e+00  4.34576e+00  1.94017e-01  6.21014e+01  1.41687e+02  1.04811e+06 -1.13391e+06  7.67042e+02  0.00000e+00 -8.50300e+04  9.56759e+03 -7.54624e+04  1.94017e-01  1.00000e+00 -6.20931e+01  0.00000e+00  2.36544e+00 
 6.87356e-03  5.14086e-03  8.28595e-21  3.47944e+00  2.53937e-04  3.59809e+02  3.60051e+02  4.27387e+00  4.31594e+00  2.07933e-01  5.81201e+01  1.37243e+02  1.10515e+06 -1.18660e+06  7.38277e+02  0.00000e+00 -8.07044e+04  8.09279e+03 -7.26116e+04  2.07933e-01  1.00000e+00 -5.81116e+01  0.00000e+00  2.67800e+00 
 7.05370e-03  5.37934e-03 -1.59677e-20  3.47944e+00  2.62193e-04  3.59835e+02  3.60051e+02  4.24009e+00  4.28289e+00  2.21719e-01  5.37118e+01  1.32922e+02  1.15449e+06 -1.23291e+06  7.09958e+02  0.00000e+00 -7.77150e+04  6.79300e+03 -7.09220e+04  2.21720e-01  1.00000e+00 -5.37031e+01  0.00000e+00  3.03023e+00 
 7.23722e-03  5.61783e-03  0.00000e+00  3.47944e+00  2.70435e-04  3.59859e+02  3.60051e+02  4.20304e+00  4.24655e+00  2.35109e-01  4.90255e+01  1.28871e+02  1.19788e+06 -1.27373e+06  6.82842e+02  0.00000e+00 -7.51736e+04  5.66889e+03 -6.95047e+04  2.35110e-01  1.00000e+00 -4.90166e+01  0.00000e+00  3.42732e+00 
 7.42387e-03  5.85632e-03  0.00000e+00  3.47944e+00  2.78390e-04  3.59883e+02  3.60051e+02  4.16259e+00  4.20673e+00  2.48152e-01  4.42140e+01  1.25189e+02  1.23679e+06 -1.31148e+06  6.57479e+02  0.00000e+00 -7.40355e+04  4.70532e+03 -6.93302e+04  2.48152e-01  1.00000e+00 -4.42051e+01  0.00000e+00  3.87391e+00 
 7.61342e-03  6.09482e-03  0.00000e+00  3.47944e+00  2.85658e-04  3.59906e+02  3.60051e+02  4.11876e+00  4.16339e+00  2.60592e-01  3.93732e+01  1.22004e+02  1.27489e+06 -1.34860e+06  6.34452e+02  0.00000e+00 -7.30733e+04  3.88851e+03 -6.91848e+04  2.60593e-01  1.00000e+00 -3.93641e+01  0.00000e+00  4.37951e+00 
 7.80566e-03  6.33332e-03  0.00000e+00  3.47944e+00  2.91981e-04  3.59928e+02  3.60051e+02  4.07117e+00  4.11611e+00  2.72639e-01  3.45696e+01  1.19362e+02  1.31410e+06 -1.38858e+06  6.13991e+02  0.00000e+00 -7.38721e+04  3.19246e+03 -7.06796e+04  2.72640e-01  1.00000e+00 -3.45603e+01  0.00000e+00  4.95216e+00 
 8.00039e-03  6.57182e-03  0.00000e+00  3.47944e+00  2.96945e-04  3.59949e+02  3.60052e+02  4.01988e+00  4.06490e+00  2.84013e-01  2.98099e+01  1.17367e+02  1.35943e+06 -1.43472e+06  5.96435e+02  0.00000e+00 -7.46944e+04  2.59838e+03 -7.20960e+04  2.84014e-01  1.00000e+00 -2.98005e+01  0.00000e+00  5.61044e+00 
 8.19744e-03  6.81033e-03  1.31016e-20  3.47944e+00  3.00413e-04  3.59970e+02  3.60052e+02  3.96390e+00  4.00870e+00  2.95072e-01  2.50602e+01  1.16013e+02  1.41240e+06 -1.49095e+06  5.81677e+02  0.00000e+00 -7.79730e+04  2.07808e+03 -7.58949e+04  2.95074e-01  1.00000e+00 -2.50505e+01  0.00000e+00  6.36850e+00 
 8.39664e-03  7.04884e-03  0.00000e+00  3.47944e+00  3.01986e-04  3.59990e+02  3.60052e+02  3.90361e+00  3.94789e+00  3.05481e-01  2.02419e+01  1.15409e+02  1.47987e+06 -1.56185e+06  5.69948e+02  0.00000e+00 -8.14112e+04  1.61275e+03 -7.97984e+04  3.05481e-01  1.00000e+00 -2.02320e+01  0.00000e+00  7.26374e+00 
 8.59784e-03  7.28736e-03  0.00000e+00  3.47944e+00  3.01676e-04  3.60010e+02  3.60052e+02  3.83650e+00  3.87989e+00  3.15729e-01  1.52145e+01  1.15529e+02  1.56312e+06 -1.65238e+06  5.60945e+02  0.00000e+00 -8.86911e+04  1.17384e+03 -8.75173e+04  3.15731e-01  1.00000e+00 -1.52042e+01  0.00000e+00  8.32203e+00 
 8.80092e-03  7.52587e-03  0.00000e+00  3.47944e+00  2.99040e-04  3.60030e+02  3.60053e+02  3.76455e+00  3.80668e+00  3.25420e-01  9.78667e+00  1.16547e+02  1.67358e+06 -1.77109e+06  5.55002e+02  0.00000e+00 -9.69527e+04  7.38736e+02 -9.62139e+04  3.25420e-01  1.00000e+00 -9.77599e+00  0.00000e+00  9.62528e+00 
 9.00573e-03  7.76439e-03 -1.17014e-20  3.47944e+00  2.94189e-04  3.60051e+02  3.60053e+02  3.68086e+00  3.72134e+00  3.35115e-01  3.63016e+00  1.18470e+02  1.81436e+06 -1.92667e+06  5.51731e+02  0.00000e+00 -1.11762e+05  2.69939e+02 -1.11492e+05  3.35117e-01  1.00000e+00 -3.61895e+00  0.00000e+00  1.12283e+01 
 9.21216e-03  8.00291e-03  0.00000e+00  3.47944e+00  2.86511e-04  3.60073e+02  3.60053e+02  3.59274e+00  3.63115e+00  3.44408e-01 -8.43562e+00  1.21645e+02  2.00928e+06 -2.13963e+06  5.51988e+02  0.00000e+00 -1.29798e+05 -6.30304e+02 -1.30428e+05  3.44407e-01  1.00000e+00  8.45776e+00  0.00000e+00  1.33383e+01 
 9.42012e-03  8.24144e-03  0.00000e+00  3.47944e+00  2.76099e-04  3.60098e+02  3.60053e+02  3.48125e+00  3.51717e+00  3.53883e-01 -2.99717e+01  1.26234e+02  2.27156e+06 -2.43315e+06  5.55095e+02  0.00000e+00 -1.61031e+05 -2.25754e+03 -1.63288e+05  3.53886e-01  1.00000e+00  2.99951e+01  0.00000e+00  1.61129e+01 
 9.62949e-03  8.47996e-03  0.00000e+00  3.47944e+00  2.61858e-04  3.60128e+02  3.60054e+02  3.36695e+00  3.39995e+00  3.63236e-01 -6.17591e+01  1.33100e+02  2.66772e+06 -2.87154e+06  5.63846e+02  0.00000e+00 -2.03253e+05 -4.77685e+03 -2.08030e+05  3.63235e-01  1.00000e+00  6.17841e+01  0.00000e+00  2.02078e+01 
 9.84019e-03  8.71849e-03  0.00000e+00  3.47944e+00  2.43649e-04  3.60170e+02  3.60054e+02  3.20180e+00  3.23152e+00  3.72859e-01 -1.15926e+02  1.43049e+02  3.27051e+06 -3.54841e+06  5.76190e+02  0.00000e+00 -2.77321e+05 -9.38630e+03 -2.86707e+05  3.72861e-01  1.00000e+00  1.15953e+02  0.00000e+00  2.63743e+01 
 1.00521e-02  8.95702e-03  0.00000e+00  3.47944e+00  2.19549e-04  3.60238e+02  3.60055e+02  3.02704e+00  3.05332e+00  3.82549e-01 -2.28812e+02  1.58753e+02  4.36871e+06 -4.74508e+06  5.99330e+02  0.00000e+00 -3.75778e+05 -2.00377e+04 -3.95816e+05  3.82549e-01  1.00000e+00  2.28842e+02  0.00000e+00  3.78473e+01 
 1.02653e-02  9.19555e-03  0.00000e+00  3.47944e+00  1.89954e-04  3.60383e+02  3.60056e+02  2.72291e+00  2.74420e+00  3.93317e-01 -5.33676e+02  1.83489e+02  6.56834e+06 -7.03066e+06  6.18994e+02  0.00000e+00 -4.61702e+05 -5.25352e+04 -5.14237e+05  3.93320e-01  1.00000e+00  5.33710e+02  0.00000e+00  6.28713e+01 
 1.04795e-02  9.43408e-03  0.00000e+00  3.47944e+00  1.57669e-04  3.60851e+02  3.60057e+02  2.27188e+00  2.28478e+00  4.05633e-01 -5.05851e+03  2.21065e+02  1.24505e+07 -1.13331e+07  6.45485e+02  6.12798e+05  1.73083e+06 -1.76418e+06 -3.33464e+04  4.05633e-01  1.00000e+00  5.05855e+03  3.25459e+03  1.59256e+02 
