# Code_Saturne plot output (1D profile)
#
# Iteration output: 2667
# Time output:      2.30034e+01
#
#COLUMN_TITLES: Distance | X | Y | Z | diameter_Field2 | temp_Field1 | temp_Field2 | Velocity_Field1[Z] | Velocity_Field2[Z] | vol_f_Field2 | mass_trans_Field1 | Xd_Field2 | BK | COAL | COMP | NUCL | W1 | MT | SMBR | ALPBB | CONDNUM | GAMA | GAMANUC | epsilon_Field1
 4.56474e-03  1.39645e-04  0.00000e+00  3.47944e+00  1.19314e-04  3.59822e+02  3.60054e+02  4.81142e+00  4.83426e+00  9.78812e-02  6.25458e+01  2.92046e+02  9.14122e+03 -1.47123e+06  1.88526e+03  0.00000e+00 -1.46021e+06  1.13752e+05 -1.34646e+06  9.78758e-02  1.00000e+00 -6.25656e+01  0.00000e+00  5.65439e-01 
 4.57812e-03  3.76525e-04  4.25872e-21  3.47944e+00  1.64984e-04  3.59822e+02  3.60054e+02  4.81067e+00  4.84456e+00  9.88032e-02  4.08062e+01  2.11204e+02  1.01911e+05 -8.52820e+05  1.36575e+03  0.00000e+00 -7.49543e+05  5.31670e+04 -6.96376e+05  9.87981e-02  1.00000e+00 -4.08195e+01  0.00000e+00  5.72749e-01 
 4.60371e-03  6.13858e-04  0.00000e+00  3.47944e+00  1.92917e-04  3.59824e+02  3.60054e+02  4.80901e+00  4.84973e+00  1.00597e-01  3.36193e+01  1.80623e+02  1.91436e+05 -6.67525e+05  1.16933e+03  0.00000e+00 -4.74920e+05  3.67920e+04 -4.38128e+05  1.00591e-01  1.00000e+00 -3.36304e+01  0.00000e+00  5.86887e-01 
 4.64138e-03  8.51483e-04  0.00000e+00  3.47944e+00  2.09627e-04  3.59826e+02  3.60054e+02  4.80668e+00  4.85142e+00  1.03185e-01  3.06769e+01  1.66224e+02  2.49213e+05 -5.99393e+05  1.07663e+03  0.00000e+00 -3.49104e+05  3.01200e+04 -3.18984e+05  1.03180e-01  1.00000e+00 -3.06872e+01  0.00000e+00  6.08145e-01 
 4.69084e-03  1.08931e-03  0.00000e+00  3.47944e+00  2.20299e-04  3.59830e+02  3.60054e+02  4.80354e+00  4.85070e+00  1.06645e-01  2.93708e+01  1.58172e+02  2.92728e+05 -5.76398e+05  1.02448e+03  0.00000e+00 -2.82645e+05  2.65505e+04 -2.56095e+05  1.06639e-01  1.00000e+00 -2.93809e+01  0.00000e+00  6.36902e-01 
 4.75174e-03  1.32727e-03  1.05001e-20  3.47944e+00  2.27660e-04  3.59835e+02  3.60054e+02  4.79955e+00  4.84822e+00  1.10975e-01  2.88279e+01  1.53058e+02  3.31944e+05 -5.76287e+05  9.91035e+02  0.00000e+00 -2.43352e+05  2.42331e+04 -2.19119e+05  1.10968e-01  1.00000e+00 -2.88379e+01  0.00000e+00  6.73810e-01 
 4.82366e-03  1.56534e-03  0.00000e+00  3.47944e+00  2.33238e-04  3.59841e+02  3.60054e+02  4.79466e+00  4.84430e+00  1.16210e-01  2.86722e+01  1.49397e+02  3.71487e+05 -5.90244e+05  9.66768e+02  0.00000e+00 -2.17790e+05  2.24661e+04 -1.95324e+05  1.16203e-01  1.00000e+00 -2.86825e+01  0.00000e+00  7.19687e-01 
 4.90611e-03  1.80349e-03  8.81027e-21  3.47944e+00  2.37929e-04  3.59848e+02  3.60054e+02  4.78878e+00  4.83910e+00  1.22359e-01  2.87001e+01  1.46452e+02  4.13485e+05 -6.13989e+05  9.46942e+02  0.00000e+00 -1.99557e+05  2.09368e+04 -1.78620e+05  1.22352e-01  1.00000e+00 -2.87107e+01  0.00000e+00  7.75565e-01 
 4.99859e-03  2.04170e-03  0.00000e+00  3.47944e+00  2.42290e-04  3.59856e+02  3.60054e+02  4.78182e+00  4.83267e+00  1.29433e-01  2.87839e+01  1.43816e+02  4.58756e+05 -6.45116e+05  9.28951e+02  0.00000e+00 -1.85432e+05  1.94933e+04 -1.65938e+05  1.29426e-01  1.00000e+00 -2.87949e+01  0.00000e+00  8.42667e-01 
 5.10055e-03  2.27996e-03  7.58893e-21  3.47944e+00  2.46689e-04  3.59865e+02  3.60054e+02  4.77367e+00  4.82498e+00  1.37420e-01  2.88285e+01  1.41251e+02  5.07332e+05 -6.81901e+05  9.11251e+02  0.00000e+00 -1.73657e+05  1.80611e+04 -1.55596e+05  1.37412e-01  1.00000e+00 -2.88400e+01  0.00000e+00  9.22423e-01 
 5.21143e-03  2.51826e-03  7.09702e-21  3.47944e+00  2.51393e-04  3.59874e+02  3.60054e+02  4.76416e+00  4.81595e+00  1.46293e-01  2.87577e+01  1.38608e+02  5.58661e+05 -7.22836e+05  8.92876e+02  0.00000e+00 -1.63282e+05  1.66075e+04 -1.46675e+05  1.46286e-01  1.00000e+00 -2.87696e+01  0.00000e+00  1.01645e+00 
 5.33068e-03  2.75659e-03  1.33300e-20  3.47944e+00  2.56600e-04  3.59885e+02  3.60054e+02  4.75313e+00  4.80545e+00  1.55996e-01  2.85077e+01  1.35796e+02  6.11737e+05 -7.66363e+05  8.73228e+02  0.00000e+00 -1.53753e+05  1.51261e+04 -1.38627e+05  1.55989e-01  1.00000e+00 -2.85202e+01  0.00000e+00  1.12657e+00 
 5.45775e-03  2.99495e-03  1.25651e-20  3.47944e+00  2.62460e-04  3.59895e+02  3.60054e+02  4.74040e+00  4.79332e+00  1.66457e-01  2.80304e+01  1.32764e+02  6.65189e+05 -8.10863e+05  8.51977e+02  0.00000e+00 -1.44822e+05  1.36273e+04 -1.31195e+05  1.66449e-01  1.00000e+00 -2.80434e+01  0.00000e+00  1.25473e+00 
 5.59212e-03  3.23333e-03  0.00000e+00  3.47944e+00  2.69076e-04  3.59906e+02  3.60054e+02  4.72574e+00  4.77938e+00  1.77559e-01  2.72922e+01  1.29499e+02  7.17466e+05 -8.54597e+05  8.29026e+02  0.00000e+00 -1.36302e+05  1.21334e+04 -1.24168e+05  1.77551e-01  1.00000e+00 -2.73057e+01  0.00000e+00  1.40302e+00 
 5.73326e-03  3.47172e-03  0.00000e+00  3.47944e+00  2.76502e-04  3.59918e+02  3.60054e+02  4.70896e+00  4.76340e+00  1.89187e-01  2.62820e+01  1.26022e+02  7.66949e+05 -8.95971e+05  8.04496e+02  0.00000e+00 -1.28217e+05  1.06719e+04 -1.17546e+05  1.89178e-01  1.00000e+00 -2.62959e+01  0.00000e+00  1.57355e+00 
 5.88069e-03  3.71014e-03 -5.35987e-21  3.47944e+00  2.84727e-04  3.59929e+02  3.60054e+02  4.68984e+00  4.74519e+00  2.01173e-01  2.50061e+01  1.22382e+02  8.12274e+05 -9.33515e+05  7.78708e+02  0.00000e+00 -1.20462e+05  9.27343e+03 -1.11189e+05  2.01164e-01  1.00000e+00 -2.50204e+01  0.00000e+00  1.76853e+00 
 6.03395e-03  3.94857e-03  5.10973e-21  3.47944e+00  2.93679e-04  3.59941e+02  3.60054e+02  4.66820e+00  4.72454e+00  2.13384e-01  2.34939e+01  1.18651e+02  8.52376e+05 -9.66315e+05  7.52131e+02  0.00000e+00 -1.13187e+05  7.96405e+03 -1.05223e+05  2.13375e-01  1.00000e+00 -2.35085e+01  0.00000e+00  1.99001e+00 
 6.19261e-03  4.18701e-03  0.00000e+00  3.47944e+00  3.03199e-04  3.59952e+02  3.60054e+02  4.64391e+00  4.70129e+00  2.25630e-01  2.17860e+01  1.14926e+02  8.86901e+05 -9.93864e+05  7.25367e+02  0.00000e+00 -1.06238e+05  6.76540e+03 -9.94727e+04  2.25620e-01  1.00000e+00 -2.18008e+01  0.00000e+00  2.24020e+00 
 6.35626e-03  4.42546e-03  0.00000e+00  3.47944e+00  3.13073e-04  3.59963e+02  3.60054e+02  4.61688e+00  4.67532e+00  2.37805e-01  1.99352e+01  1.11301e+02  9.15948e+05 -1.01650e+06  6.99043e+02  0.00000e+00 -9.98563e+04  5.68888e+03 -9.41674e+04  2.37795e-01  1.00000e+00 -1.99503e+01  0.00000e+00  2.52111e+00 
 6.52453e-03  4.66392e-03 -8.96437e-21  3.47944e+00  3.22992e-04  3.59975e+02  3.60054e+02  4.58707e+00  4.64654e+00  2.49730e-01  1.79916e+01  1.07884e+02  9.40546e+05 -1.03500e+06  6.73827e+02  0.00000e+00 -9.37782e+04  4.73940e+03 -8.90388e+04  2.49717e-01  1.00000e+00 -1.80068e+01  0.00000e+00  2.83533e+00 
 6.69707e-03  4.90238e-03  1.72236e-20  3.47944e+00  3.32638e-04  3.59986e+02  3.60054e+02  4.55445e+00  4.61486e+00  2.61370e-01  1.60025e+01  1.04756e+02  9.61855e+05 -1.05091e+06  6.50253e+02  0.00000e+00 -8.84046e+04  3.91121e+03 -8.44934e+04  2.61365e-01  1.00000e+00 -1.60178e+01  0.00000e+00  3.18535e+00 
 6.87356e-03  5.14086e-03  8.28595e-21  3.47944e+00  3.41620e-04  3.59997e+02  3.60054e+02  4.51904e+00  4.58022e+00  2.72591e-01  1.40002e+01  1.02001e+02  9.81914e+05 -1.06590e+06  6.28800e+02  0.00000e+00 -8.33608e+04  3.19519e+03 -8.01656e+04  2.72585e-01  1.00000e+00 -1.40157e+01  0.00000e+00  3.57521e+00 
 7.05370e-03  5.37934e-03 -1.59677e-20  3.47944e+00  3.49633e-04  3.60008e+02  3.60054e+02  4.48076e+00  4.54252e+00  2.83450e-01  1.20055e+01  9.96641e+01  1.00223e+06 -1.08205e+06  6.09726e+02  0.00000e+00 -7.92171e+04  2.57510e+03 -7.66420e+04  2.83443e-01  1.00000e+00 -1.20212e+01  0.00000e+00  4.00877e+00 
 7.23722e-03  5.61783e-03  0.00000e+00  3.47944e+00  3.56322e-04  3.60018e+02  3.60054e+02  4.43959e+00  4.50166e+00  2.93806e-01  1.00223e+01  9.77933e+01  1.02520e+06 -1.10122e+06  5.93259e+02  0.00000e+00 -7.54337e+04  2.03556e+03 -7.33981e+04  2.93799e-01  1.00000e+00 -1.00381e+01  0.00000e+00  4.49335e+00 
 7.42387e-03  5.85632e-03  0.00000e+00  3.47944e+00  3.61521e-04  3.60029e+02  3.60054e+02  4.39526e+00  4.45733e+00  3.03823e-01  8.04206e+00  9.63873e+01  1.05193e+06 -1.12536e+06  5.79347e+02  0.00000e+00 -7.28526e+04  1.55746e+03 -7.12952e+04  3.03815e-01  1.00000e+00 -8.05816e+00  0.00000e+00  5.03517e+00 
 7.61342e-03  6.09482e-03  0.00000e+00  3.47944e+00  3.64978e-04  3.60039e+02  3.60055e+02  4.34773e+00  4.40948e+00  3.13333e-01  6.04489e+00  9.54749e+01  1.08503e+06 -1.15625e+06  5.68020e+02  0.00000e+00 -7.06552e+04  1.12520e+03 -6.95300e+04  3.13326e-01  1.00000e+00 -6.06131e+00  0.00000e+00  5.64753e+00 
 7.80566e-03  6.33332e-03  0.00000e+00  3.47944e+00  3.66702e-04  3.60049e+02  3.60055e+02  4.29638e+00  4.35743e+00  3.22588e-01  3.99983e+00  9.50265e+01  1.12502e+06 -1.19562e+06  5.59029e+02  0.00000e+00 -7.00493e+04  7.20839e+02 -6.93285e+04  3.22580e-01  1.00000e+00 -4.01664e+00  0.00000e+00  6.34018e+00 
 8.00039e-03  6.57182e-03  0.00000e+00  3.47944e+00  3.66503e-04  3.60059e+02  3.60055e+02  4.24132e+00  4.30134e+00  3.31358e-01  1.86807e+00  9.50783e+01  1.17527e+06 -1.24561e+06  5.52385e+02  0.00000e+00 -6.97890e+04  3.29581e+02 -6.94595e+04  3.31349e-01  1.00000e+00 -1.88538e+00  0.00000e+00  7.13777e+00 
 8.19744e-03  6.81033e-03  1.31016e-20  3.47944e+00  3.64541e-04  3.60069e+02  3.60055e+02  4.18114e+00  4.23974e+00  3.39983e-01 -9.74413e-01  9.55907e+01  1.23598e+06 -1.30817e+06  5.47749e+02  0.00000e+00 -7.16437e+04 -1.60733e+02 -7.18044e+04  3.39974e-01  1.00000e+00  9.38352e-01  0.00000e+00  8.05578e+00 
 8.39664e-03  7.04884e-03  0.00000e+00  3.47944e+00  3.60606e-04  3.60079e+02  3.60055e+02  4.11679e+00  4.17366e+00  3.48167e-01 -6.57107e+00  9.66342e+01  1.31248e+06 -1.38679e+06  5.45211e+02  0.00000e+00 -7.37591e+04 -1.10481e+03 -7.48639e+04  3.48157e-01  1.00000e+00  6.53377e+00  0.00000e+00  9.14304e+00 
 8.59784e-03  7.28736e-03  0.00000e+00  3.47944e+00  3.54882e-04  3.60090e+02  3.60056e+02  4.04453e+00  4.09928e+00  3.56314e-01 -1.29632e+01  9.81935e+01  1.40556e+06 -1.48505e+06  5.44470e+02  0.00000e+00 -7.89421e+04 -2.16992e+03 -8.11120e+04  3.56304e-01  1.00000e+00  1.29245e+01  0.00000e+00  1.04265e+01 
 8.80092e-03  7.52587e-03  0.00000e+00  3.47944e+00  3.46943e-04  3.60101e+02  3.60056e+02  3.96833e+00  4.02064e+00  3.64083e-01 -2.06372e+01  1.00441e+02  1.52597e+06 -1.61152e+06  5.46070e+02  0.00000e+00 -8.50037e+04 -3.46168e+03 -8.84654e+04  3.64073e-01  1.00000e+00  2.05967e+01  0.00000e+00  1.20134e+01 
 9.00573e-03  7.76439e-03 -1.17014e-20  3.47944e+00  3.37015e-04  3.60113e+02  3.60056e+02  3.87779e+00  3.92728e+00  3.71935e-01 -3.03725e+01  1.03400e+02  1.67674e+06 -1.77390e+06  5.49489e+02  0.00000e+00 -9.66107e+04 -5.13694e+03 -1.01748e+05  3.71924e-01  1.00000e+00  3.03300e+01  0.00000e+00  1.39607e+01 
 9.21216e-03  8.00291e-03  0.00000e+00  3.47944e+00  3.24401e-04  3.60128e+02  3.60057e+02  3.78551e+00  3.83181e+00  3.79526e-01 -4.35796e+01  1.07422e+02  1.88175e+06 -1.99302e+06  5.56199e+02  0.00000e+00 -1.10712e+05 -7.50690e+03 -1.18219e+05  3.79516e-01  1.00000e+00  4.35346e+01  0.00000e+00  1.65383e+01 
 9.42012e-03  8.24144e-03  0.00000e+00  3.47944e+00  3.09315e-04  3.60147e+02  3.60057e+02  3.66402e+00  3.70676e+00  3.87332e-01 -6.27898e+01  1.12662e+02  2.15396e+06 -2.29082e+06  5.64795e+02  0.00000e+00 -1.36295e+05 -1.11179e+04 -1.47413e+05  3.87320e-01  1.00000e+00  6.27417e+01  0.00000e+00  1.99164e+01 
 9.62949e-03  8.47996e-03  0.00000e+00  3.47944e+00  2.90486e-04  3.60173e+02  3.60058e+02  3.54577e+00  3.58462e+00  3.95098e-01 -9.36403e+01  1.19966e+02  2.56125e+06 -2.73106e+06  5.79612e+02  0.00000e+00 -1.69238e+05 -1.73118e+04 -1.86550e+05  3.95088e-01  1.00000e+00  9.35881e+01  0.00000e+00  2.49404e+01 
 9.84019e-03  8.71849e-03  0.00000e+00  3.47944e+00  2.67957e-04  3.60213e+02  3.60058e+02  3.36476e+00  3.39950e+00  4.03163e-01 -1.48724e+02  1.30054e+02  3.17425e+06 -3.40387e+06  5.96382e+02  0.00000e+00 -2.29021e+05 -2.92160e+04 -2.58237e+05  4.03153e-01  1.00000e+00  1.48667e+02  0.00000e+00  3.24706e+01 
 1.00521e-02  8.95702e-03  0.00000e+00  3.47944e+00  2.39288e-04  3.60283e+02  3.60059e+02  3.18473e+00  3.21532e+00  4.11356e-01 -2.66891e+02  1.45637e+02  4.29258e+06 -4.59290e+06  6.26534e+02  0.00000e+00 -2.99692e+05 -5.75499e+04 -3.57241e+05  4.11346e-01  1.00000e+00  2.66827e+02  0.00000e+00  4.65969e+01 
 1.02653e-02  9.19555e-03  0.00000e+00  3.47944e+00  2.05145e-04  3.60436e+02  3.60060e+02  2.85239e+00  2.87719e+00  4.20643e-01 -5.87171e+02  1.69878e+02  6.52502e+06 -6.84751e+06  6.50585e+02  0.00000e+00 -3.21840e+05 -1.44441e+05 -4.66281e+05  4.20633e-01  1.00000e+00  5.87097e+02  0.00000e+00  7.72435e+01 
 1.04795e-02  9.43408e-03  0.00000e+00  3.47944e+00  1.68754e-04  3.60930e+02  3.60061e+02  2.38063e+00  2.39571e+00  4.31308e-01 -5.26674e+03  2.06516e+02  1.24544e+07 -1.07704e+07  6.82504e+02  9.09059e+05  2.59377e+06 -2.60911e+06 -1.53411e+04  4.31304e-01  1.00000e+00  5.26665e+03  3.36093e+03  1.95574e+02 
