# Code_Saturne plot output (1D profile)
#
# Iteration output: 4046
# Time output:      2.30002e+01
#
#COLUMN_TITLES: Distance | X | Y | Z | diameter_Field2 | temp_Field1 | temp_Field2 | Velocity_Field1[Z] | Velocity_Field2[Z] | vol_f_Field2 | mass_trans_Field1 | Xd_Field2 | BK | COAL | COMP | NUCL | W1 | MT | SMBR | ALPBB | CONDNUM | GAMA | GAMANUC | epsilon_Field1
 4.56474e-03  1.39645e-04  0.00000e+00  3.47944e+00  1.42393e-05  3.59539e+02  3.60048e+02  4.35119e+00  4.35176e+00  5.62108e-03  1.57735e+02  2.44775e+03 6.98151e-193 -7.95413e+05  1.24266e+04  0.00000e+00 -7.82986e+05  3.66012e+07  3.58182e+07  5.60192e-03  1.00000e+00 -1.57110e+02  0.00000e+00  2.96707e-01 
 4.57812e-03  3.76525e-04  4.25872e-21  3.47944e+00  2.18247e-05  3.59539e+02  3.60048e+02  4.35136e+00  4.35260e+00  8.52007e-03  1.32121e+02  1.59701e+03  6.41221e-89 -5.88705e+05  7.94732e+03  0.00000e+00 -5.80757e+05  1.31381e+07  1.25573e+07  8.51222e-03  1.00000e+00 -1.31595e+02  0.00000e+00  2.99010e-01 
 4.60371e-03  6.13858e-04  0.00000e+00  3.47944e+00  3.03664e-05  3.59540e+02  3.60048e+02  4.35117e+00  4.35344e+00  1.16435e-02  1.11352e+02  1.14779e+03  7.52755e-47 -4.62547e+05  5.74405e+03  0.00000e+00 -4.56803e+05  5.81277e+06  5.35597e+06  1.16427e-02  1.00000e+00 -1.10907e+02  0.00000e+00  3.03402e-01 
 4.64138e-03  8.51483e-04  0.00000e+00  3.47944e+00  3.94533e-05  3.59543e+02  3.60048e+02  4.35070e+00  4.35434e+00  1.44592e-02  9.28317e+01  8.83427e+02  8.75729e-27 -3.71077e+05  4.43767e+03  0.00000e+00 -3.66639e+05  3.00103e+06  2.63439e+06  1.44621e-02  1.00000e+00 -9.24579e+01  0.00000e+00  3.09850e-01 
 4.69084e-03  1.08931e-03  0.00000e+00  3.47944e+00  4.87512e-05  3.59548e+02  3.60048e+02  4.34979e+00  4.35499e+00  1.68912e-02  7.87590e+01  7.14939e+02  5.27149e-16 -3.05250e+05  3.59834e+03  0.00000e+00 -3.01652e+05  1.76310e+06  1.46145e+06  1.68958e-02  1.00000e+00 -7.84387e+01  0.00000e+00  3.18421e-01 
 4.75174e-03  1.32727e-03  1.05001e-20  3.47944e+00  5.79479e-05  3.59554e+02  3.60048e+02  4.34838e+00  4.35544e+00  1.92392e-02  6.81024e+01  6.01473e+02  1.05912e-09 -2.61844e+05  3.02920e+03  0.00000e+00 -2.58815e+05  1.12582e+06  8.67010e+05  1.92442e-02  1.00000e+00 -6.78216e+01  0.00000e+00  3.29210e-01 
 4.82366e-03  1.56534e-03  0.00000e+00  3.47944e+00  6.67752e-05  3.59563e+02  3.60048e+02  4.34643e+00  4.35535e+00  2.18755e-02  6.18835e+01  5.21962e+02  9.09988e-06 -2.36736e+05  2.62881e+03  0.00000e+00 -2.34107e+05  7.80683e+05  5.46575e+05  2.18804e-02  1.00000e+00 -6.16238e+01  0.00000e+00  3.42488e-01 
 4.90611e-03  1.80349e-03  8.81027e-21  3.47944e+00  7.51391e-05  3.59574e+02  3.60048e+02  4.34392e+00  4.35460e+00  2.49281e-02  5.84076e+01  4.63861e+02  3.74153e-03 -2.23764e+05  2.33666e+03  0.00000e+00 -2.21428e+05  5.74560e+05  3.53132e+05  2.49329e-02  1.00000e+00 -5.81569e+01  0.00000e+00  3.58590e-01 
 4.99859e-03  2.04170e-03  0.00000e+00  3.47944e+00  8.31565e-05  3.59587e+02  3.60048e+02  4.34085e+00  4.35322e+00  2.84420e-02  5.63967e+01  4.19139e+02  2.68361e-01 -2.18289e+05  2.11138e+03  0.00000e+00 -2.16177e+05  4.39301e+05  2.23124e+05  2.84467e-02  1.00000e+00 -5.61479e+01  0.00000e+00  3.78087e-01 
 5.10055e-03  2.27996e-03  7.58893e-21  3.47944e+00  9.09591e-05  3.59602e+02  3.60048e+02  4.33717e+00  4.35120e+00  3.24856e-02  5.52893e+01  3.83185e+02  6.52188e+00 -2.17938e+05  1.93001e+03  0.00000e+00 -2.16001e+05  3.44675e+05  1.28674e+05  3.24898e-02  1.00000e+00 -5.50372e+01  0.00000e+00  4.01630e-01 
 5.21143e-03  2.51826e-03  7.09702e-21  3.47944e+00  9.86154e-05  3.59620e+02  3.60048e+02  4.33282e+00  4.34844e+00  3.71315e-02  5.47524e+01  3.53435e+02  7.63975e+01 -2.21578e+05  1.77963e+03  0.00000e+00 -2.19722e+05  2.75394e+05  5.56716e+04  3.71350e-02  1.00000e+00 -5.44929e+01  0.00000e+00  4.30001e-01 
 5.33068e-03  2.75659e-03  1.33300e-20  3.47944e+00  1.06111e-04  3.59640e+02  3.60048e+02  4.32774e+00  4.34491e+00  4.24666e-02  5.46433e+01  3.28469e+02  5.27398e+02 -2.28904e+05  1.65317e+03  0.00000e+00 -2.26723e+05  2.23296e+05 -3.42695e+03  4.24695e-02  1.00000e+00 -5.43723e+01  0.00000e+00  4.64195e-01 
 5.45775e-03  2.99495e-03  1.25651e-20  3.47944e+00  1.13347e-04  3.59662e+02  3.60048e+02  4.32183e+00  4.34045e+00  4.85828e-02  5.48813e+01  3.07498e+02  2.43042e+03 -2.40115e+05  1.54655e+03  0.00000e+00 -2.36138e+05  1.83477e+05 -5.26617e+04  4.85845e-02  1.00000e+00 -5.45945e+01  0.00000e+00  5.05412e-01 
 5.59212e-03  3.23333e-03  0.00000e+00  3.47944e+00  1.20149e-04  3.59685e+02  3.60048e+02  4.31501e+00  4.33495e+00  5.55825e-02  5.54641e+01  2.90091e+02  8.14384e+03 -2.55898e+05  1.45774e+03  0.00000e+00 -2.46297e+05  1.52853e+05 -9.34433e+04  5.55834e-02  1.00000e+00 -5.51565e+01  0.00000e+00  5.55091e-01 
 5.73326e-03  3.47172e-03  0.00000e+00  3.47944e+00  1.26288e-04  3.59710e+02  3.60048e+02  4.30713e+00  4.32820e+00  6.35793e-02  5.63295e+01  2.75989e+02  2.11983e+04 -2.77384e+05  1.38520e+03  0.00000e+00 -2.54801e+05  1.29067e+05 -1.25733e+05  6.35799e-02  1.00000e+00 -5.59954e+01  0.00000e+00  6.15075e-01 
 5.88069e-03  3.71014e-03 -5.35987e-21  3.47944e+00  1.31537e-04  3.59736e+02  3.60048e+02  4.29805e+00  4.32003e+00  7.26772e-02  5.69775e+01  2.64975e+02  4.52197e+04 -3.05993e+05  1.32792e+03  0.00000e+00 -2.59445e+05  1.09603e+05 -1.49842e+05  7.26764e-02  1.00000e+00 -5.66129e+01  0.00000e+00  6.87463e-01 
 6.03395e-03  3.94857e-03  5.10973e-21  3.47944e+00  1.35721e-04  3.59763e+02  3.60048e+02  4.28759e+00  4.31023e+00  8.29530e-02  5.78004e+01  2.56807e+02  8.27421e+04 -3.43392e+05  1.28441e+03  0.00000e+00 -2.59365e+05  9.43597e+04 -1.65006e+05  8.29496e-02  1.00000e+00 -5.73978e+01  0.00000e+00  7.74754e-01 
 6.19261e-03  4.18701e-03  0.00000e+00  3.47944e+00  1.38783e-04  3.59790e+02  3.60048e+02  4.27555e+00  4.29855e+00  9.44946e-02  5.86975e+01  2.51141e+02  1.35015e+05 -3.91504e+05  1.25315e+03  0.00000e+00 -2.55235e+05  8.22110e+04 -1.73024e+05  9.44868e-02  1.00000e+00 -5.82480e+01  0.00000e+00  8.79917e-01 
 6.35626e-03  4.42546e-03  0.00000e+00  3.47944e+00  1.40788e-04  3.59818e+02  3.60048e+02  4.26166e+00  4.28501e+00  1.07338e-01  5.94922e+01  2.47564e+02  2.02613e+05 -4.52188e+05  1.23299e+03  0.00000e+00 -2.48342e+05  7.22494e+04 -1.76093e+05  1.07327e-01  1.00000e+00 -5.89862e+01  0.00000e+00  1.00633e+00 
 6.52453e-03  4.66392e-03 -8.96437e-21  3.47944e+00  1.41882e-04  3.59845e+02  3.60048e+02  4.25050e+00  4.27517e+00  1.21516e-01  6.00358e+01  2.45655e+02  2.87526e+05 -5.27819e+05  1.21401e+03  0.00000e+00 -2.39079e+05  6.38375e+04 -1.75241e+05  1.21507e-01  1.00000e+00 -5.94624e+01  0.00000e+00  1.16052e+00 
 6.69707e-03  4.90238e-03  1.72236e-20  3.47944e+00  1.42252e-04  3.59872e+02  3.60048e+02  4.23173e+00  4.25597e+00  1.36983e-01  6.00062e+01  2.45018e+02  3.91056e+05 -6.20230e+05  1.20651e+03  0.00000e+00 -2.27968e+05  5.63779e+04 -1.71590e+05  1.36980e-01  1.00000e+00 -5.93554e+01  0.00000e+00  1.34759e+00 
 6.87356e-03  5.14086e-03  8.28595e-21  3.47944e+00  1.42088e-04  3.59897e+02  3.60048e+02  4.21019e+00  4.23381e+00  1.53664e-01  5.92320e+01  2.45300e+02  5.12559e+05 -7.30641e+05  1.20270e+03  0.00000e+00 -2.16879e+05  4.95845e+04 -1.67294e+05  1.53664e-01  1.00000e+00 -5.84934e+01  0.00000e+00  1.57017e+00 
 7.05370e-03  5.37934e-03 -1.59677e-20  3.47944e+00  1.41556e-04  3.59921e+02  3.60048e+02  4.18541e+00  4.20829e+00  1.71382e-01  5.75699e+01  2.46223e+02  6.53446e+05 -8.60344e+05  1.20098e+03  0.00000e+00 -2.05696e+05  4.32854e+04 -1.62411e+05  1.71376e-01  1.00000e+00 -5.67342e+01  0.00000e+00  1.83581e+00 
 7.23722e-03  5.61783e-03  0.00000e+00  3.47944e+00  1.40796e-04  3.59943e+02  3.60048e+02  4.15699e+00  4.17906e+00  1.89910e-01  5.49310e+01  2.47553e+02  8.13535e+05 -1.00985e+06  1.20025e+03  0.00000e+00 -1.95114e+05  3.73737e+04 -1.57740e+05  1.89905e-01  1.00000e+00 -5.39901e+01  0.00000e+00  2.15028e+00 
 7.42387e-03  5.85632e-03  0.00000e+00  3.47944e+00  1.39911e-04  3.59963e+02  3.60048e+02  4.12455e+00  4.14577e+00  2.08968e-01  5.13234e+01  2.49118e+02  9.93012e+05 -1.17919e+06  1.19936e+03  0.00000e+00 -1.84983e+05  3.18259e+04 -1.53157e+05  2.08961e-01  1.00000e+00 -5.02712e+01  0.00000e+00  2.52161e+00 
 7.61342e-03  6.09482e-03  0.00000e+00  3.47944e+00  1.38979e-04  3.59981e+02  3.60048e+02  4.08768e+00  4.10802e+00  2.28217e-01  4.68456e+01  2.50790e+02  1.19052e+06 -1.36735e+06  1.19785e+03  0.00000e+00 -1.75635e+05  2.66553e+04 -1.48980e+05  2.28221e-01  1.00000e+00 -4.56779e+01  0.00000e+00  2.95711e+00 
 7.80566e-03  6.33332e-03  0.00000e+00  3.47944e+00  1.38036e-04  3.59997e+02  3.60049e+02  4.04605e+00  4.06550e+00  2.47457e-01  4.16904e+01  2.52503e+02  1.40534e+06 -1.57406e+06  1.19490e+03  0.00000e+00 -1.67532e+05  2.18922e+04 -1.45640e+05  2.47478e-01  1.00000e+00 -4.04051e+01  0.00000e+00  3.46667e+00 
 8.00039e-03  6.57182e-03  0.00000e+00  3.47944e+00  1.37090e-04  3.60010e+02  3.60049e+02  3.99926e+00  4.01782e+00  2.66393e-01  3.60893e+01  2.54246e+02  1.63690e+06 -1.79850e+06  1.19051e+03  0.00000e+00 -1.60404e+05  1.75769e+04 -1.42827e+05  2.66430e-01  1.00000e+00 -3.46856e+01  0.00000e+00  4.06191e+00 
 8.19744e-03  6.81033e-03  1.31016e-20  3.47944e+00  1.36117e-04  3.60022e+02  3.60049e+02  3.94705e+00  3.96470e+00  2.85027e-01  3.02950e+01  2.56065e+02  1.88518e+06 -2.04254e+06  1.18466e+03  0.00000e+00 -1.56178e+05  1.37241e+04 -1.42454e+05  2.85077e-01  1.00000e+00 -2.87725e+01  0.00000e+00  4.75824e+00 
 8.39664e-03  7.04884e-03  0.00000e+00  3.47944e+00  1.35056e-04  3.60032e+02  3.60049e+02  3.88889e+00  3.90560e+00  3.03105e-01  2.45080e+01  2.58078e+02  2.15237e+06 -2.30789e+06  1.17750e+03  0.00000e+00 -1.54345e+05  1.03374e+04 -1.44008e+05  3.03149e-01  1.00000e+00 -2.28664e+01  0.00000e+00  5.57695e+00 
 8.59784e-03  7.28736e-03  0.00000e+00  3.47944e+00  1.33820e-04  3.60041e+02  3.60049e+02  3.82444e+00  3.84022e+00  3.20725e-01  1.89015e+01  2.60462e+02  2.44275e+06 -2.60153e+06  1.16958e+03  0.00000e+00 -1.57609e+05  7.39026e+03 -1.50219e+05  3.20758e-01  1.00000e+00 -1.71385e+01  0.00000e+00  6.55088e+00 
 8.80092e-03  7.52587e-03  0.00000e+00  3.47944e+00  1.32277e-04  3.60048e+02  3.60049e+02  3.75261e+00  3.76745e+00  3.37627e-01  1.35515e+01  2.63501e+02  2.76498e+06 -2.93188e+06  1.16185e+03  0.00000e+00 -1.65736e+05  4.83333e+03 -1.60903e+05  3.37651e-01  1.00000e+00 -1.16630e+01  0.00000e+00  7.72217e+00 
 9.00573e-03  7.76439e-03 -1.17014e-20  3.47944e+00  1.30279e-04  3.60053e+02  3.60050e+02  3.67257e+00  3.68643e+00  3.54012e-01  8.46832e+00  2.67544e+02  3.13431e+06 -3.31777e+06  1.15537e+03  0.00000e+00 -1.82303e+05  2.58625e+03 -1.79717e+05  3.54045e-01  1.00000e+00 -6.44475e+00  0.00000e+00  9.16315e+00 
 9.21216e-03  8.00291e-03  0.00000e+00  3.47944e+00  1.27611e-04  3.60058e+02  3.60050e+02  3.58243e+00  3.59524e+00  3.69762e-01  3.52136e+00  2.73141e+02  3.57736e+06 -3.78708e+06  1.15105e+03  0.00000e+00 -2.08570e+05  5.28183e+02 -2.08041e+05  3.69818e-01  1.00000e+00 -1.34665e+00  0.00000e+00  1.09940e+01 
 9.42012e-03  8.24144e-03  0.00000e+00  3.47944e+00  1.24060e-04  3.60062e+02  3.60050e+02  3.47871e+00  3.49038e+00  3.85274e-01 -4.06751e+00  2.80960e+02  4.13583e+06 -4.38947e+06  1.14988e+03  0.00000e+00 -2.52493e+05 -3.28913e+03 -2.55782e+05  3.85332e-01  1.00000e+00  8.49454e+00  0.00000e+00  1.34196e+01 
 9.62949e-03  8.47996e-03  0.00000e+00  3.47944e+00  1.19259e-04  3.60067e+02  3.60050e+02  3.35724e+00  3.36734e+00  4.00523e-01 -1.87389e+01  2.92274e+02  4.89107e+06 -5.21496e+06  1.15536e+03  0.00000e+00 -3.22727e+05 -9.11172e+03 -3.31838e+05  4.00546e-01  1.00000e+00  2.35137e+01  0.00000e+00  1.68199e+01 
 9.84019e-03  8.71849e-03  0.00000e+00  3.47944e+00  1.12836e-04  3.60074e+02  3.60051e+02  3.20717e+00  3.21595e+00  4.15835e-01 -4.64322e+01  3.08912e+02  5.99154e+06 -6.43375e+06  1.16605e+03  0.00000e+00 -4.41040e+05 -2.03762e+04 -4.61416e+05  4.15827e-01  1.00000e+00  5.16481e+01  0.00000e+00  2.19322e+01 
 1.00521e-02  8.95702e-03  0.00000e+00  3.47944e+00  1.04125e-04  3.60091e+02  3.60051e+02  3.02781e+00  3.03518e+00  4.31062e-01 -1.20124e+02  3.34759e+02  7.87756e+06 -8.47026e+06  1.18569e+03  0.00000e+00 -5.91517e+05 -5.19432e+04 -6.43460e+05  4.31056e-01  1.00000e+00  1.25946e+02  0.00000e+00  3.09858e+01 
 1.02653e-02  9.19555e-03  0.00000e+00  3.47944e+00  9.30204e-05  3.60144e+02  3.60052e+02  2.75814e+00  2.76401e+00  4.47264e-01 -4.03888e+02  3.74726e+02  1.16736e+07 -1.23078e+07  1.19906e+03  0.00000e+00 -6.32991e+05 -1.82662e+05 -8.15653e+05  4.47275e-01  1.00000e+00  4.10552e+02  0.00000e+00  5.09230e+01 
 1.04795e-02  9.43408e-03  0.00000e+00  3.47944e+00  8.07488e-05  3.60429e+02  3.60053e+02  2.32730e+00  2.33042e+00  4.67900e-01 -5.55184e+03  4.31681e+02  2.22296e+07 -2.08424e+07  1.20922e+03  3.19512e+06  4.58348e+06 -4.72269e+06 -1.39213e+05  4.67949e-01  1.00000e+00  5.55960e+03  3.25056e+03  1.26189e+02 
