# Code_Saturne plot output (1D profile)
#
# Iteration output: 3988
# Time output:      2.30006e+01
#
#COLUMN_TITLES: Distance | X | Y | Z | diameter_Field2 | temp_Field1 | temp_Field2 | Velocity_Field1[Z] | Velocity_Field2[Z] | vol_f_Field2 | mass_trans_Field1 | Xd_Field2 | BK | COAL | COMP | NUCL | W1 | MT | SMBR | ALPBB | CONDNUM | GAMA | GAMANUC | epsilon_Field1
 4.56474e-03  1.39645e-04  0.00000e+00  3.47944e+00  4.64923e-04  3.60106e+02  3.60062e+02  5.59961e+00  5.69857e+00  3.20316e-01 -7.41559e+00  7.49143e+01  2.06196e+05 -4.07508e+05  6.88784e+02  0.00000e+00 -2.00623e+05 -6.05486e+02 -2.01228e+05  3.20322e-01  1.00000e+00  7.41324e+00  0.00000e+00  2.05886e+00 
 4.57812e-03  3.76525e-04  4.25872e-21  3.47944e+00  4.82447e-04  3.60106e+02  3.60062e+02  5.59798e+00  5.69784e+00  3.20929e-01 -7.09899e+00  7.21931e+01  1.97991e+05 -3.78980e+05  6.63699e+02  0.00000e+00 -1.80326e+05 -5.57512e+02 -1.80884e+05  3.20936e-01  1.00000e+00  7.09676e+00  0.00000e+00  2.07661e+00 
 4.60371e-03  6.13858e-04  0.00000e+00  3.47944e+00  4.97213e-04  3.60106e+02  3.60062e+02  5.59462e+00  5.69465e+00  3.21817e-01 -6.93102e+00  7.00492e+01  1.92216e+05 -3.57901e+05  6.43752e+02  0.00000e+00 -1.65041e+05 -5.26702e+02 -1.65568e+05  3.21824e-01  1.00000e+00  6.92888e+00  0.00000e+00  2.11114e+00 
 4.64138e-03  8.51483e-04  0.00000e+00  3.47944e+00  5.11336e-04  3.60107e+02  3.60062e+02  5.58955e+00  5.68940e+00  3.23148e-01 -6.85305e+00  6.81144e+01  1.87550e+05 -3.40048e+05  6.25547e+02  0.00000e+00 -1.51872e+05 -5.04310e+02 -1.52376e+05  3.23155e-01  1.00000e+00  6.85098e+00  0.00000e+00  2.16280e+00 
 4.69084e-03  1.08931e-03  0.00000e+00  3.47944e+00  5.26052e-04  3.60108e+02  3.60062e+02  5.58274e+00  5.68218e+00  3.24883e-01 -6.83048e+00  6.62090e+01  1.83313e+05 -3.23198e+05  6.07452e+02  0.00000e+00 -1.39278e+05 -4.85982e+02 -1.39764e+05  3.24890e-01  1.00000e+00  6.82848e+00  0.00000e+00  2.23210e+00 
 4.75174e-03  1.32727e-03  1.05001e-20  3.47944e+00  5.41634e-04  3.60109e+02  3.60062e+02  5.57417e+00  5.67303e+00  3.27015e-01 -6.85176e+00  6.43043e+01  1.79308e+05 -3.06829e+05  5.89228e+02  0.00000e+00 -1.26932e+05 -4.70388e+02 -1.27402e+05  3.27023e-01  1.00000e+00  6.84983e+00  0.00000e+00  2.31975e+00 
 4.82366e-03  1.56534e-03  0.00000e+00  3.47944e+00  5.57951e-04  3.60110e+02  3.60062e+02  5.56383e+00  5.66197e+00  3.29543e-01 -6.91376e+00  6.24238e+01  1.75527e+05 -2.90989e+05  5.71101e+02  0.00000e+00 -1.14892e+05 -4.57232e+02 -1.15349e+05  3.29552e-01  1.00000e+00  6.91189e+00  0.00000e+00  2.42655e+00 
 4.90611e-03  1.80349e-03  8.81027e-21  3.47944e+00  5.74573e-04  3.60111e+02  3.60062e+02  5.55168e+00  5.64898e+00  3.32427e-01 -7.01830e+00  6.06179e+01  1.72090e+05 -2.75994e+05  5.53546e+02  0.00000e+00 -1.03351e+05 -4.46813e+02 -1.03798e+05  3.32436e-01  1.00000e+00  7.01649e+00  0.00000e+00  2.55353e+00 
 4.99859e-03  2.04170e-03  0.00000e+00  3.47944e+00  5.90955e-04  3.60113e+02  3.60062e+02  5.53768e+00  5.63405e+00  3.35663e-01 -7.16985e+00  5.89376e+01  1.69136e+05 -2.62217e+05  5.37034e+02  0.00000e+00 -9.25440e+04 -4.39534e+02 -9.29835e+04  3.35673e-01  1.00000e+00  7.16809e+00  0.00000e+00  2.70176e+00 
 5.10055e-03  2.27996e-03  7.58893e-21  3.47944e+00  6.06461e-04  3.60114e+02  3.60062e+02  5.52179e+00  5.61715e+00  3.39207e-01 -7.37417e+00  5.74307e+01  1.66840e+05 -2.50000e+05  5.21998e+02  0.00000e+00 -8.26381e+04 -4.35903e+02 -8.30740e+04  3.39218e-01  1.00000e+00  7.37244e+00  0.00000e+00  2.87257e+00 
 5.21143e-03  2.51826e-03  7.09702e-21  3.47944e+00  6.20496e-04  3.60116e+02  3.60062e+02  5.50397e+00  5.59826e+00  3.43049e-01 -7.63796e+00  5.61318e+01  1.65336e+05 -2.39615e+05  5.08757e+02  0.00000e+00 -7.37696e+04 -4.36346e+02 -7.42059e+04  3.43061e-01  1.00000e+00  7.63627e+00  0.00000e+00  3.06726e+00 
 5.33068e-03  2.75659e-03  1.33300e-20  3.47944e+00  6.32532e-04  3.60118e+02  3.60062e+02  5.48415e+00  5.57732e+00  3.47119e-01 -7.96744e+00  5.50637e+01  1.64756e+05 -2.31212e+05  4.97519e+02  0.00000e+00 -6.59583e+04 -4.41276e+02 -6.63996e+04  3.47133e-01  1.00000e+00  7.96577e+00  0.00000e+00  3.28740e+00 
 5.45775e-03  2.99495e-03  1.25651e-20  3.47944e+00  6.42202e-04  3.60120e+02  3.60062e+02  5.46229e+00  5.55431e+00  3.51436e-01 -8.36953e+00  5.42347e+01  1.65162e+05 -2.24888e+05  4.88322e+02  0.00000e+00 -5.92375e+04 -4.50964e+02 -5.96885e+04  3.51450e-01  1.00000e+00  8.36787e+00  0.00000e+00  3.53456e+00 
 5.59212e-03  3.23333e-03  0.00000e+00  3.47944e+00  6.49278e-04  3.60122e+02  3.60062e+02  5.43834e+00  5.52918e+00  3.55929e-01 -8.84977e+00  5.36437e+01  1.66618e+05 -2.20623e+05  4.81146e+02  0.00000e+00 -5.35242e+04 -4.65698e+02 -5.39899e+04  3.55942e-01  1.00000e+00  8.84812e+00  0.00000e+00  3.81069e+00 
 5.73326e-03  3.47172e-03  0.00000e+00  3.47944e+00  6.53714e-04  3.60124e+02  3.60062e+02  5.41224e+00  5.50187e+00  3.60592e-01 -9.41393e+00  5.32798e+01  1.69127e+05 -2.18362e+05  4.75871e+02  0.00000e+00 -4.87586e+04 -4.85674e+02 -4.92443e+04  3.60602e-01  1.00000e+00  9.41227e+00  0.00000e+00  4.11763e+00 
 5.88069e-03  3.71014e-03 -5.35987e-21  3.47944e+00  6.55573e-04  3.60127e+02  3.60062e+02  5.38381e+00  5.47219e+00  3.65351e-01 -1.00668e+01  5.31289e+01  1.72714e+05 -2.17994e+05  4.72356e+02  0.00000e+00 -4.48075e+04 -5.11154e+02 -4.53187e+04  3.65356e-01  1.00000e+00  1.00651e+01  0.00000e+00  4.45809e+00 
 6.03395e-03  3.94857e-03  5.10973e-21  3.47944e+00  6.55039e-04  3.60129e+02  3.60062e+02  5.35299e+00  5.44035e+00  3.70232e-01 -1.08259e+01  5.31724e+01  1.77334e+05 -2.19446e+05  4.70398e+02  0.00000e+00 -4.16417e+04 -5.42904e+02 -4.21846e+04  3.70233e-01  1.00000e+00  1.08242e+01  0.00000e+00  4.83346e+00 
 6.19261e-03  4.18701e-03  0.00000e+00  3.47944e+00  6.52311e-04  3.60131e+02  3.60062e+02  5.31990e+00  5.40641e+00  3.75143e-01 -1.16870e+01  5.33948e+01  1.83032e+05 -2.22598e+05  4.69774e+02  0.00000e+00 -3.90965e+04 -5.80845e+02 -3.96774e+04  3.75141e-01  1.00000e+00  1.16852e+01  0.00000e+00  5.24802e+00 
 6.35626e-03  4.42546e-03  0.00000e+00  3.47944e+00  6.47648e-04  3.60134e+02  3.60063e+02  5.28446e+00  5.37017e+00  3.80105e-01 -1.26579e+01  5.37795e+01  1.89783e+05 -2.27398e+05  4.70352e+02  0.00000e+00 -3.71449e+04 -6.25368e+02 -3.77702e+04  3.80103e-01  1.00000e+00  1.26561e+01  0.00000e+00  5.70458e+00 
 6.52453e-03  4.66392e-03 -8.96437e-21  3.47944e+00  6.41252e-04  3.60136e+02  3.60063e+02  5.24658e+00  5.33152e+00  3.85019e-01 -1.37467e+01  5.43161e+01  1.97675e+05 -2.33778e+05  4.71933e+02  0.00000e+00 -3.56311e+04 -6.77186e+02 -3.63082e+04  3.85017e-01  1.00000e+00  1.37448e+01  0.00000e+00  6.20938e+00 
 6.69707e-03  4.90238e-03  1.72236e-20  3.47944e+00  6.33361e-04  3.60139e+02  3.60063e+02  5.20615e+00  5.29032e+00  3.89946e-01 -1.49691e+01  5.49931e+01  2.06703e+05 -2.41769e+05  4.74482e+02  0.00000e+00 -3.45919e+04 -7.37166e+02 -3.53291e+04  3.89945e-01  1.00000e+00  1.49671e+01  0.00000e+00  6.76619e+00 
 6.87356e-03  5.14086e-03  8.28595e-21  3.47944e+00  6.24114e-04  3.60142e+02  3.60063e+02  5.16305e+00  5.24638e+00  3.94809e-01 -1.63408e+01  5.58081e+01  2.17021e+05 -2.51408e+05  4.77907e+02  0.00000e+00 -3.39090e+04 -8.06593e+02 -3.47156e+04  3.94807e-01  1.00000e+00  1.63388e+01  0.00000e+00  7.38402e+00 
 7.05370e-03  5.37934e-03 -1.59677e-20  3.47944e+00  6.13694e-04  3.60145e+02  3.60063e+02  5.11701e+00  5.19948e+00  3.99684e-01 -1.78890e+01  5.67559e+01  2.28670e+05 -2.62822e+05  4.82134e+02  0.00000e+00 -3.36700e+04 -8.87062e+02 -3.45570e+04  3.99681e-01  1.00000e+00  1.78869e+01  0.00000e+00  8.06892e+00 
 7.23722e-03  5.61783e-03  0.00000e+00  3.47944e+00  6.02153e-04  3.60148e+02  3.60063e+02  5.06802e+00  5.14954e+00  4.04468e-01 -1.96430e+01  5.78440e+01  2.41932e+05 -2.76163e+05  4.87116e+02  0.00000e+00 -3.37440e+04 -9.80979e+02 -3.47250e+04  4.04465e-01  1.00000e+00  1.96408e+01  0.00000e+00  8.83548e+00 
 7.42387e-03  5.85632e-03  0.00000e+00  3.47944e+00  5.89623e-04  3.60151e+02  3.60064e+02  5.01551e+00  5.09604e+00  4.09275e-01 -2.16503e+01  5.90735e+01  2.56900e+05 -2.91707e+05  4.92831e+02  0.00000e+00 -3.43143e+04 -1.09125e+03 -3.54055e+04  4.09271e-01  1.00000e+00  2.16480e+01  0.00000e+00  9.69242e+00 
 7.61342e-03  6.09482e-03  0.00000e+00  3.47944e+00  5.76065e-04  3.60154e+02  3.60064e+02  4.95966e+00  5.03910e+00  4.13975e-01 -2.39678e+01  6.04643e+01  2.74065e+05 -3.09782e+05  4.99306e+02  0.00000e+00 -3.52176e+04 -1.22247e+03 -3.64401e+04  4.13972e-01  1.00000e+00  2.39654e+01  0.00000e+00  1.06644e+01 
 7.80566e-03  6.33332e-03  0.00000e+00  3.47944e+00  5.61579e-04  3.60158e+02  3.60064e+02  4.89924e+00  4.97754e+00  4.18714e-01 -2.66819e+01  6.20243e+01  2.93621e+05 -3.30882e+05  5.06510e+02  0.00000e+00 -3.67540e+04 -1.38022e+03 -3.81343e+04  4.18709e-01  1.00000e+00  2.66794e+01  0.00000e+00  1.17653e+01 
 8.00039e-03  6.57182e-03  0.00000e+00  3.47944e+00  5.46030e-04  3.60163e+02  3.60065e+02  4.83526e+00  4.91232e+00  4.23354e-01 -2.99081e+01  6.37910e+01  3.16392e+05 -3.55684e+05  5.14712e+02  0.00000e+00 -3.87771e+04 -1.57374e+03 -4.03508e+04  4.23350e-01  1.00000e+00  2.99055e+01  0.00000e+00  1.30369e+01 
 8.19744e-03  6.81033e-03  1.31016e-20  3.47944e+00  5.29500e-04  3.60168e+02  3.60065e+02  4.76446e+00  4.84023e+00  4.28077e-01 -3.38141e+01  6.57828e+01  3.42793e+05 -3.85073e+05  5.23513e+02  0.00000e+00 -4.17560e+04 -1.81460e+03 -4.35706e+04  4.28073e-01  1.00000e+00  3.38113e+01  0.00000e+00  1.45061e+01 
 8.39664e-03  7.04884e-03  0.00000e+00  3.47944e+00  5.11721e-04  3.60174e+02  3.60065e+02  4.69069e+00  4.76513e+00  4.32683e-01 -3.86524e+01  6.80689e+01  3.74426e+05 -4.20350e+05  5.33541e+02  0.00000e+00 -4.53907e+04 -2.12348e+03 -4.75141e+04  4.32682e-01  1.00000e+00  3.86494e+01  0.00000e+00  1.62572e+01 
 8.59784e-03  7.28736e-03  0.00000e+00  3.47944e+00  4.92784e-04  3.60181e+02  3.60066e+02  4.60486e+00  4.67790e+00  4.37440e-01 -4.47886e+01  7.06852e+01  4.11961e+05 -4.63407e+05  5.44477e+02  0.00000e+00 -5.09013e+04 -2.52740e+03 -5.34287e+04  4.37439e-01  1.00000e+00  4.47854e+01  0.00000e+00  1.83221e+01 
 8.80092e-03  7.52587e-03  0.00000e+00  3.47944e+00  4.72194e-04  3.60190e+02  3.60066e+02  4.51875e+00  4.59035e+00  4.42127e-01 -5.28374e+01  7.37680e+01  4.58875e+05 -5.17081e+05  5.57625e+02  0.00000e+00 -5.76491e+04 -3.07864e+03 -6.07277e+04  4.42130e-01  1.00000e+00  5.28339e+01  0.00000e+00  2.08997e+01 
 9.00573e-03  7.76439e-03 -1.17014e-20  3.47944e+00  4.50028e-04  3.60202e+02  3.60067e+02  4.40911e+00  4.47912e+00  4.47011e-01 -6.37709e+01  7.74022e+01  5.16882e+05 -5.85832e+05  5.71923e+02  0.00000e+00 -6.83781e+04 -3.85620e+03 -7.22343e+04  4.47013e-01  1.00000e+00  6.37672e+01  0.00000e+00  2.40450e+01 
 9.21216e-03  8.00291e-03  0.00000e+00  3.47944e+00  4.25369e-04  3.60217e+02  3.60067e+02  4.31010e+00  4.37684e+00  4.51898e-01 -7.93236e+01  8.18900e+01  5.94905e+05 -6.76871e+05  5.90374e+02  0.00000e+00 -8.13758e+04 -5.01994e+03 -8.63958e+04  4.51903e-01  1.00000e+00  7.93195e+01  0.00000e+00  2.83137e+01 
 9.42012e-03  8.24144e-03  0.00000e+00  3.47944e+00  3.98450e-04  3.60238e+02  3.60068e+02  4.15820e+00  4.21848e+00  4.57035e-01 -1.02427e+02  8.74236e+01  6.98258e+05 -8.01878e+05  6.10478e+02  0.00000e+00 -1.03009e+05 -6.84241e+03 -1.09851e+05  4.57037e-01  1.00000e+00  1.02423e+02  0.00000e+00  3.38851e+01 
 9.62949e-03  8.47996e-03  0.00000e+00  3.47944e+00  3.67980e-04  3.60269e+02  3.60068e+02  4.03078e+00  4.08451e+00  4.62301e-01 -1.39953e+02  9.46635e+01  8.50672e+05 -9.82469e+05  6.38400e+02  0.00000e+00 -1.31159e+05 -1.00083e+04 -1.41167e+05  4.62307e-01  1.00000e+00  1.39948e+02  0.00000e+00  4.22525e+01 
 9.84019e-03  8.71849e-03  0.00000e+00  3.47944e+00  3.34171e-04  3.60319e+02  3.60069e+02  3.80216e+00  3.84926e+00  4.67762e-01 -2.06380e+02  1.04243e+02  1.07798e+06 -1.25839e+06  6.65067e+02  0.00000e+00 -1.79738e+05 -1.60628e+04 -1.95801e+05  4.67765e-01  1.00000e+00  2.06374e+02  0.00000e+00  5.46263e+01 
 1.00521e-02  8.95702e-03  0.00000e+00  3.47944e+00  2.94385e-04  3.60405e+02  3.60070e+02  3.60944e+00  3.65092e+00  4.73435e-01 -3.45658e+02  1.18332e+02  1.48607e+06 -1.72492e+06  7.10324e+02  0.00000e+00 -2.38133e+05 -3.01728e+04 -2.68306e+05  4.73436e-01  1.00000e+00  3.45651e+02  0.00000e+00  7.79785e+01 
 1.02653e-02  9.19555e-03  0.00000e+00  3.47944e+00  2.49867e-04  3.60592e+02  3.60071e+02  3.20500e+00  3.24020e+00  4.80051e-01 -7.06152e+02  1.39418e+02  2.28837e+06 -2.54679e+06  7.37998e+02  0.00000e+00 -2.57684e+05 -7.16197e+04 -3.29303e+05  4.80038e-01  1.00000e+00  7.06143e+02  0.00000e+00  1.28902e+02 
 1.04795e-02  9.43408e-03  0.00000e+00  3.47944e+00  2.05418e-04  3.61171e+02  3.60072e+02  2.67566e+00  2.69902e+00  4.88627e-01 -5.66508e+03  1.69590e+02  4.31697e+06 -3.43406e+06  7.68539e+02  6.43181e+05  1.52686e+06 -1.51795e+06  8.91194e+03  4.88632e-01  1.00000e+00  5.66507e+03  3.59297e+03  3.25898e+02 
