# Code_Saturne plot output (1D profile)
#
# Iteration output: 2021
# Time output:      2.30028e+01
#
#COLUMN_TITLES: Distance | X | Y | Z | diameter_Field2 | temp_Field1 | temp_Field2 | Velocity_Field1[Z] | Velocity_Field2[Z] | vol_f_Field2 | mass_trans_Field1 | Xd_Field2 | BK | COAL | COMP | NUCL | W1 | MT | SMBR | ALPBB | CONDNUM | GAMA | GAMANUC | epsilon_Field1
 4.56474e-03  1.39645e-04  0.00000e+00  3.47944e+00  2.63677e-05  3.58592e+02  3.60048e+02  4.13829e+00  4.14012e+00  3.62123e-03  1.07431e+02  1.32192e+03  3.40433e-52 -5.12883e+05  6.26574e+03  0.00000e+00 -5.06617e+05  1.44736e+07  1.39670e+07  3.62107e-03  1.00000e+00 -1.07424e+02  0.00000e+00  3.70608e-01 
 4.57812e-03  3.76525e-04  4.25872e-21  3.47944e+00  3.80864e-05  3.58596e+02  3.60048e+02  4.13789e+00  4.14103e+00  4.18302e-03  7.58106e+01  9.15186e+02  3.31085e-24 -3.18940e+05  4.30071e+03  0.00000e+00 -3.14639e+05  6.12151e+06  5.80687e+06  4.18283e-03  1.00000e+00 -7.58055e+01  0.00000e+00  3.74128e-01 
 4.60371e-03  6.13858e-04  0.00000e+00  3.47944e+00  4.88270e-05  3.58604e+02  3.60048e+02  4.13652e+00  4.14101e+00  4.81026e-03  6.28922e+01  7.13869e+02  4.50306e-13 -2.41947e+05  3.35430e+03  0.00000e+00 -2.38593e+05  3.44471e+06  3.20611e+06  4.81010e-03  1.00000e+00 -6.28879e+01  0.00000e+00  3.80976e-01 
 4.64138e-03  8.51483e-04  0.00000e+00  3.47944e+00  5.84984e-05  3.58616e+02  3.60048e+02  4.13444e+00  4.14063e+00  5.54881e-03  5.58142e+01  5.95847e+02  1.85671e-07 -2.06933e+05  2.80074e+03  0.00000e+00 -2.04132e+05  2.21198e+06  2.00785e+06  5.54864e-03  1.00000e+00 -5.58103e+01  0.00000e+00  3.91222e-01 
 4.69084e-03  1.08931e-03  0.00000e+00  3.47944e+00  6.73758e-05  3.58633e+02  3.60048e+02  4.13160e+00  4.13939e+00  6.49449e-03  5.31473e+01  5.17339e+02  4.07268e-04 -1.92444e+05  2.43244e+03  0.00000e+00 -1.90011e+05  1.56247e+06  1.37246e+06  6.49429e-03  1.00000e+00 -5.31437e+01  0.00000e+00  4.05036e-01 
 4.75174e-03  1.32727e-03  1.05001e-20  3.47944e+00  7.57318e-05  3.58654e+02  3.60048e+02  4.12800e+00  4.13734e+00  7.67092e-03  5.25974e+01  4.60258e+02  6.74288e-02 -1.88670e+05  2.16456e+03  0.00000e+00 -1.86506e+05  1.16470e+06  9.78199e+05  7.67071e-03  1.00000e+00 -5.25937e+01  0.00000e+00  4.22620e-01 
 4.82366e-03  1.56534e-03  0.00000e+00  3.47944e+00  8.38077e-05  3.58680e+02  3.60048e+02  4.12365e+00  4.13452e+00  9.10746e-03  5.32819e+01  4.15906e+02  2.61781e+00 -1.91337e+05  1.95616e+03  0.00000e+00 -1.89378e+05  8.97995e+05  7.08617e+05  9.10722e-03  1.00000e+00 -5.32781e+01  0.00000e+00  4.44236e-01 
 4.90611e-03  1.80349e-03  8.81027e-21  3.47944e+00  9.17393e-05  3.58710e+02  3.60048e+02  4.11851e+00  4.13091e+00  1.08411e-02  5.48003e+01  3.79948e+02  4.06257e+01 -1.98599e+05  1.78687e+03  0.00000e+00 -1.96771e+05  7.08805e+05  5.12034e+05  1.08409e-02  1.00000e+00 -5.47963e+01  0.00000e+00  4.70249e-01 
 4.99859e-03  2.04170e-03  0.00000e+00  3.47944e+00  9.95739e-05  3.58744e+02  3.60048e+02  4.11256e+00  4.12646e+00  1.29152e-02  5.69593e+01  3.50053e+02  3.34597e+02 -2.09715e+05  1.64576e+03  0.00000e+00 -2.07735e+05  5.69757e+05  3.62022e+05  1.29149e-02  1.00000e+00 -5.69550e+01  0.00000e+00  5.01142e-01 
 5.10055e-03  2.27996e-03  7.58893e-21  3.47944e+00  1.07287e-04  3.58783e+02  3.60048e+02  4.10578e+00  4.12115e+00  1.53798e-02  5.96796e+01  3.24886e+02  1.73027e+03 -2.24574e+05  1.52657e+03  0.00000e+00 -2.21317e+05  4.65264e+05  2.43947e+05  1.53794e-02  1.00000e+00 -5.96750e+01  0.00000e+00  5.37501e-01 
 5.21143e-03  2.51826e-03  7.09702e-21  3.47944e+00  1.14797e-04  3.58825e+02  3.60048e+02  4.09810e+00  4.11487e+00  1.82912e-02  6.29498e+01  3.03634e+02  6.27312e+03 -2.43487e+05  1.42554e+03  0.00000e+00 -2.35789e+05  3.85651e+05  1.49862e+05  1.82907e-02  1.00000e+00 -6.29448e+01  0.00000e+00  5.80023e-01 
 5.33068e-03  2.75659e-03  1.33300e-20  3.47944e+00  1.21976e-04  3.58871e+02  3.60048e+02  4.08951e+00  4.10759e+00  2.17133e-02  6.68028e+01  2.85763e+02  1.72622e+04 -2.67126e+05  1.34013e+03  0.00000e+00 -2.48523e+05  3.24462e+05  7.59387e+04  2.17128e-02  1.00000e+00 -6.67973e+01  0.00000e+00  6.29534e-01 
 5.45775e-03  2.99495e-03  1.25651e-20  3.47944e+00  1.28692e-04  3.58920e+02  3.60048e+02  4.07990e+00  4.09916e+00  2.57159e-02  7.12838e+01  2.70850e+02  3.83448e+04 -2.96416e+05  1.26840e+03  0.00000e+00 -2.56802e+05  2.77080e+05  2.02774e+04  2.57153e-02  1.00000e+00 -7.12777e+01  0.00000e+00  6.87006e-01 
 5.59212e-03  3.23333e-03  0.00000e+00  3.47944e+00  1.34847e-04  3.58971e+02  3.60048e+02  4.06925e+00  4.08953e+00  3.03751e-02  7.64214e+01  2.58487e+02  7.22799e+04 -3.32431e+05  1.20841e+03  0.00000e+00 -2.58942e+05  2.40005e+05 -1.89370e+04  3.03743e-02  1.00000e+00 -7.64145e+01  0.00000e+00  7.53578e-01 
 5.73326e-03  3.47172e-03  0.00000e+00  3.47944e+00  1.40417e-04  3.59025e+02  3.60048e+02  4.05745e+00  4.07860e+00  3.57719e-02  8.21968e+01  2.48233e+02  1.20395e+05 -3.76253e+05  1.15808e+03  0.00000e+00 -2.54699e+05  2.10502e+05 -4.41974e+04  3.57710e-02  1.00000e+00 -8.21890e+01  0.00000e+00  8.30597e-01 
 5.88069e-03  3.71014e-03 -5.35987e-21  3.47944e+00  1.45458e-04  3.59082e+02  3.60048e+02  4.04440e+00  4.06630e+00  4.19911e-02  8.85263e+01  2.39631e+02  1.82891e+05 -4.28851e+05  1.11524e+03  0.00000e+00 -2.44844e+05  1.86439e+05 -5.84050e+04  4.19901e-02  1.00000e+00 -8.85175e+01  0.00000e+00  9.19645e-01 
 6.03395e-03  3.94857e-03  5.10973e-21  3.47944e+00  1.50092e-04  3.59139e+02  3.60048e+02  4.03001e+00  4.05254e+00  4.91143e-02  9.52453e+01  2.32233e+02  2.59385e+05 -4.90921e+05  1.07778e+03  0.00000e+00 -2.30459e+05  1.66202e+05 -6.42564e+04  4.91131e-02  1.00000e+00 -9.52353e+01  0.00000e+00  1.02258e+00 
 6.19261e-03  4.18701e-03  0.00000e+00  3.47944e+00  1.54484e-04  3.59197e+02  3.60048e+02  4.01411e+00  4.03722e+00  5.72206e-02  1.02125e+02  2.25631e+02  3.49197e+05 -5.62828e+05  1.04378e+03  0.00000e+00 -2.12587e+05  1.48611e+05 -6.39752e+04  5.72191e-02  1.00000e+00 -1.02113e+02  0.00000e+00  1.14163e+00 
 6.35626e-03  4.42546e-03  0.00000e+00  3.47944e+00  1.58822e-04  3.59256e+02  3.60048e+02  3.99658e+00  4.02024e+00  6.63831e-02  1.08302e+02  2.19468e+02  4.51280e+05 -6.44455e+05  1.01157e+03  0.00000e+00 -1.92164e+05  1.32137e+05 -6.00268e+04  6.63814e-02  1.00000e+00 -1.08289e+02  0.00000e+00  1.27937e+00 
 6.52453e-03  4.66392e-03 -8.96437e-21  3.47944e+00  1.63292e-04  3.59315e+02  3.60048e+02  3.97717e+00  4.00140e+00  7.66440e-02  1.12926e+02  2.13461e+02  5.63931e+05 -7.34964e+05  9.79820e+02  0.00000e+00 -1.70053e+05  1.16066e+05 -5.39865e+04  7.66420e-02  1.00000e+00 -1.12912e+02  0.00000e+00  1.43889e+00 
 6.69707e-03  4.90238e-03  1.72236e-20  3.47944e+00  1.68051e-04  3.59373e+02  3.60048e+02  3.95570e+00  3.98053e+00  8.80335e-02  1.16365e+02  2.07416e+02  6.84421e+05 -8.33054e+05  9.47585e+02  0.00000e+00 -1.47686e+05  1.01177e+05 -4.65092e+04  8.80312e-02  1.00000e+00 -1.16349e+02  0.00000e+00  1.62370e+00 
 6.87356e-03  5.14086e-03  8.28595e-21  3.47944e+00  1.73260e-04  3.59429e+02  3.60048e+02  3.93184e+00  3.95713e+00  1.00510e-01  1.18234e+02  2.01181e+02  8.09286e+05 -9.36215e+05  9.14209e+02  0.00000e+00 -1.26015e+05  8.73337e+04 -3.86811e+04  1.00507e-01  1.00000e+00 -1.18216e+02  0.00000e+00  1.83803e+00 
 7.05370e-03  5.37934e-03 -1.59677e-20  3.47944e+00  1.79065e-04  3.59485e+02  3.60048e+02  3.90529e+00  3.93117e+00  1.14046e-01  1.18292e+02  1.94659e+02  9.34120e+05 -1.04160e+06  8.79222e+02  0.00000e+00 -1.06599e+05  7.45081e+04 -3.20904e+04  1.14043e-01  1.00000e+00 -1.18272e+02  0.00000e+00  2.08639e+00 
 7.23722e-03  5.61783e-03  0.00000e+00  3.47944e+00  1.85566e-04  3.59538e+02  3.60048e+02  3.87567e+00  3.90219e+00  1.28466e-01  1.16318e+02  1.87839e+02  1.05448e+06 -1.14513e+06  8.42570e+02  0.00000e+00 -8.98096e+04  6.27623e+04 -2.70473e+04  1.28462e-01  1.00000e+00 -1.16297e+02  0.00000e+00  2.37446e+00 
 7.42387e-03  5.85632e-03  0.00000e+00  3.47944e+00  1.92817e-04  3.59589e+02  3.60048e+02  3.84257e+00  3.86979e+00  1.43680e-01  1.12353e+02  1.80776e+02  1.16567e+06 -1.24379e+06  8.04568e+02  0.00000e+00 -7.73179e+04  5.21640e+04 -2.51539e+04  1.43677e-01  1.00000e+00 -1.12330e+02  0.00000e+00  2.70766e+00 
 7.61342e-03  6.09482e-03  0.00000e+00  3.47944e+00  2.00753e-04  3.59639e+02  3.60048e+02  3.80566e+00  3.83363e+00  1.59335e-01  1.06476e+02  1.73631e+02  1.26502e+06 -1.33395e+06  7.65826e+02  0.00000e+00 -6.81645e+04  4.28152e+04 -2.53494e+04  1.59332e-01  1.00000e+00 -1.06453e+02  0.00000e+00  3.09363e+00 
 7.80566e-03  6.33332e-03  0.00000e+00  3.47944e+00  2.09248e-04  3.59686e+02  3.60049e+02  3.76450e+00  3.79325e+00  1.75344e-01  9.90584e+01  1.66582e+02  1.35041e+06 -1.41524e+06  7.27352e+02  0.00000e+00 -6.41004e+04  3.47252e+04 -2.93752e+04  1.75342e-01  1.00000e+00 -9.90337e+01  0.00000e+00  3.53891e+00 
 8.00039e-03  6.57182e-03  0.00000e+00  3.47944e+00  2.17978e-04  3.59731e+02  3.60049e+02  3.71896e+00  3.74848e+00  1.91215e-01  9.04113e+01  1.59910e+02  1.42405e+06 -1.48728e+06  6.90186e+02  0.00000e+00 -6.25375e+04  2.78984e+04 -3.46391e+04  1.91213e-01  1.00000e+00 -9.03857e+01  0.00000e+00  4.05566e+00 
 8.19744e-03  6.81033e-03  1.31016e-20  3.47944e+00  2.26613e-04  3.59774e+02  3.60049e+02  3.66851e+00  3.69874e+00  2.06989e-01  8.09988e+01  1.53818e+02  1.48771e+06 -1.55417e+06  6.55350e+02  0.00000e+00 -6.58087e+04  2.22085e+04 -4.36003e+04  2.06989e-01  1.00000e+00 -8.09725e+01  0.00000e+00  4.65393e+00 
 8.39664e-03  7.04884e-03  0.00000e+00  3.47944e+00  2.34569e-04  3.59816e+02  3.60049e+02  3.61325e+00  3.64408e+00  2.22137e-01  7.10944e+01  1.48601e+02  1.54929e+06 -1.62011e+06  6.23802e+02  0.00000e+00 -7.01888e+04  1.75466e+04 -5.26422e+04  2.22136e-01  1.00000e+00 -7.10674e+01  0.00000e+00  5.35858e+00 
 8.59784e-03  7.28736e-03  0.00000e+00  3.47944e+00  2.41432e-04  3.59857e+02  3.60049e+02  3.55195e+00  3.58319e+00  2.36968e-01  6.09255e+01  1.44377e+02  1.61295e+06 -1.69314e+06  5.96095e+02  0.00000e+00 -7.95876e+04  1.36938e+04 -6.58938e+04  2.36971e-01  1.00000e+00 -6.08977e+01  0.00000e+00  6.19024e+00 
 8.80092e-03  7.52587e-03  0.00000e+00  3.47944e+00  2.46479e-04  3.59897e+02  3.60049e+02  3.48510e+00  3.51650e+00  2.50977e-01  5.04679e+01  1.41422e+02  1.69177e+06 -1.78202e+06  5.72770e+02  0.00000e+00 -8.96804e+04  1.04898e+04 -7.91907e+04  2.50978e-01  1.00000e+00 -5.04393e+01  0.00000e+00  7.20656e+00 
 9.00573e-03  7.76439e-03 -1.17014e-20  3.47944e+00  2.49387e-04  3.59937e+02  3.60050e+02  3.40905e+00  3.44030e+00  2.64720e-01  3.94771e+01  1.39773e+02  1.79106e+06 -1.89819e+06  5.53851e+02  0.00000e+00 -1.06577e+05  7.68713e+03 -9.88895e+04  2.64725e-01  1.00000e+00 -3.94474e+01  0.00000e+00  8.45629e+00 
 9.21216e-03  8.00291e-03  0.00000e+00  3.47944e+00  2.49389e-04  3.59979e+02  3.60050e+02  3.32625e+00  3.35695e+00  2.77760e-01  2.74083e+01  1.39773e+02  1.93271e+06 -2.05938e+06  5.39652e+02  0.00000e+00 -1.26125e+05  5.08455e+03 -1.21041e+05  2.77763e-01  1.00000e+00 -2.73772e+01  0.00000e+00  1.00869e+01 
 9.42012e-03  8.24144e-03  0.00000e+00  3.47944e+00  2.46293e-04  3.60022e+02  3.60050e+02  3.22615e+00  3.25593e+00  2.90741e-01  1.31268e+01  1.41531e+02  2.12891e+06 -2.28688e+06  5.29852e+02  0.00000e+00 -1.57438e+05  2.35239e+03 -1.55086e+05  2.90747e-01  1.00000e+00 -1.30936e+01  0.00000e+00  1.22396e+01 
 9.62949e-03  8.47996e-03  0.00000e+00  3.47944e+00  2.39245e-04  3.60071e+02  3.60050e+02  3.11713e+00  3.14556e+00  3.03368e-01 -1.21787e+01  1.45701e+02  2.43087e+06 -2.62787e+06  5.25176e+02  0.00000e+00 -1.96478e+05 -2.17118e+03 -1.98649e+05  3.03372e-01  1.00000e+00  1.22489e+01  0.00000e+00  1.53844e+01 
 9.84019e-03  8.71849e-03  0.00000e+00  3.47944e+00  2.28022e-04  3.60130e+02  3.60051e+02  2.97016e+00  2.99707e+00  3.16128e-01 -7.39007e+01  1.52874e+02  2.89413e+06 -3.15041e+06  5.24584e+02  0.00000e+00 -2.55754e+05 -1.32030e+04 -2.68957e+05  3.16134e-01  1.00000e+00  7.39772e+01  0.00000e+00  2.01512e+01 
 1.00521e-02  8.95702e-03  0.00000e+00  3.47944e+00  2.11129e-04  3.60216e+02  3.60051e+02  2.80248e+00  2.82768e+00  3.28780e-01 -1.88911e+02  1.65107e+02  3.72982e+06 -4.04711e+06  5.30301e+02  0.00000e+00 -3.16757e+05 -3.50286e+04 -3.51785e+05  3.28781e-01  1.00000e+00  1.88997e+02  0.00000e+00  2.89275e+01 
 1.02653e-02  9.19555e-03  0.00000e+00  3.47944e+00  1.89220e-04  3.60377e+02  3.60052e+02  2.53102e+00  2.55330e+00  3.42763e-01 -4.71492e+02  1.84226e+02  5.35246e+06 -5.65511e+06  5.30186e+02  0.00000e+00 -3.02121e+05 -9.35454e+04 -3.95667e+05  3.42770e-01  1.00000e+00  4.71591e+02  0.00000e+00  4.82167e+01 
 1.04795e-02  9.43408e-03  0.00000e+00  3.47944e+00  1.66370e-04  3.60857e+02  3.60053e+02  2.10620e+00  2.12156e+00  3.58068e-01 -4.61086e+03  2.09531e+02  9.37743e+06 -8.15437e+06  5.21954e+02  9.37695e+05  2.16129e+06 -2.20652e+06 -4.52310e+04  3.58065e-01  1.00000e+00  4.61097e+03  3.10361e+03  1.22433e+02 
