# Code_Saturne plot output (1D profile)
#
# Iteration output: 3745
# Time output:      2.30008e+01
#
#COLUMN_TITLES: Distance | X | Y | Z | diameter_Field2 | temp_Field1 | temp_Field2 | Velocity_Field1[Z] | Velocity_Field2[Z] | vol_f_Field2 | mass_trans_Field1 | Xd_Field2 | BK | COAL | COMP | NUCL | W1 | MT | SMBR | ALPBB | CONDNUM | GAMA | GAMANUC | epsilon_Field1
 4.56474e-03  1.39645e-04  0.00000e+00  3.47944e+00  5.49029e-05  3.58931e+02  3.60047e+02  4.34226e+00  4.35019e+00  1.59196e-02  1.22951e+02  6.34856e+02  9.94567e-11 -5.85534e+05  3.21449e+03  0.00000e+00 -5.82320e+05  1.38718e+06  8.04857e+05  1.59255e-02  1.00000e+00 -1.22756e+02  0.00000e+00  3.41611e-01 
 4.57812e-03  3.76525e-04  4.25872e-21  3.47944e+00  7.24683e-05  3.58934e+02  3.60047e+02  4.34185e+00  4.35365e+00  1.64618e-02  8.65037e+01  4.80974e+02  5.40946e-04 -3.78557e+05  2.43234e+03  0.00000e+00 -3.76124e+05  7.15061e+05  3.38937e+05  1.64677e-02  1.00000e+00 -8.63661e+01  0.00000e+00  3.45395e-01 
 4.60371e-03  6.13858e-04  0.00000e+00  3.47944e+00  8.72002e-05  3.58941e+02  3.60047e+02  4.34048e+00  4.35548e+00  1.74048e-02  7.10783e+01  3.99717e+02  5.21255e-01 -2.93689e+05  2.02145e+03  0.00000e+00 -2.91667e+05  4.61830e+05  1.70163e+05  1.74109e-02  1.00000e+00 -7.09644e+01  0.00000e+00  3.52856e-01 
 4.64138e-03  8.51483e-04  0.00000e+00  3.47944e+00  9.95934e-05  3.58953e+02  3.60047e+02  4.33841e+00  4.35606e+00  1.87339e-02  6.37949e+01  3.49977e+02  2.21646e+01 -2.54272e+05  1.77001e+03  0.00000e+00 -2.52480e+05  3.37174e+05  8.46946e+04  1.87403e-02  1.00000e+00 -6.36916e+01  0.00000e+00  3.64098e-01 
 4.69084e-03  1.08931e-03  0.00000e+00  3.47944e+00  1.10589e-04  3.58969e+02  3.60047e+02  4.33560e+00  4.35555e+00  2.04648e-02  6.02175e+01  3.15181e+02  2.48779e+02 -2.35105e+05  1.59401e+03  0.00000e+00 -2.33262e+05  2.62378e+05  2.91165e+04  2.04715e-02  1.00000e+00 -6.01185e+01  0.00000e+00  3.79335e-01 
 4.75174e-03  1.32727e-03  1.05001e-20  3.47944e+00  1.20598e-04  3.58989e+02  3.60047e+02  4.33207e+00  4.35406e+00  2.26304e-02  5.87658e+01  2.89020e+02  1.36959e+03 -2.27583e+05  1.46160e+03  0.00000e+00 -2.24752e+05  2.12329e+05 -1.24224e+04  2.26374e-02  1.00000e+00 -5.86674e+01  0.00000e+00  3.98835e-01 
 4.82366e-03  1.56534e-03  0.00000e+00  3.47944e+00  1.29772e-04  3.59013e+02  3.60047e+02  4.32779e+00  4.35161e+00  2.52707e-02  5.87564e+01  2.68589e+02  4.85823e+03 -2.28200e+05  1.35806e+03  0.00000e+00 -2.21984e+05  1.76671e+05 -4.53129e+04  2.52783e-02  1.00000e+00 -5.86557e+01  0.00000e+00  4.22992e-01 
 4.90611e-03  1.80349e-03  8.81027e-21  3.47944e+00  1.38123e-04  3.59042e+02  3.60047e+02  4.32274e+00  4.34818e+00  2.84373e-02  5.98688e+01  2.52351e+02  1.28013e+04 -2.35540e+05  1.27561e+03  0.00000e+00 -2.21463e+05  1.50292e+05 -7.11714e+04  2.84459e-02  1.00000e+00 -5.97634e+01  0.00000e+00  4.52295e-01 
 4.99859e-03  2.04170e-03  0.00000e+00  3.47944e+00  1.45608e-04  3.59074e+02  3.60047e+02  4.31690e+00  4.34373e+00  3.21859e-02  6.19366e+01  2.39378e+02  2.72916e+04 -2.49152e+05  1.20952e+03  0.00000e+00 -2.20650e+05  1.30306e+05 -9.03444e+04  3.21955e-02  1.00000e+00 -6.18240e+01  0.00000e+00  4.87359e-01 
 5.10055e-03  2.27996e-03  7.58893e-21  3.47944e+00  1.52195e-04  3.59110e+02  3.60047e+02  4.31021e+00  4.33821e+00  3.65813e-02  6.48641e+01  2.29018e+02  4.98564e+04 -2.69128e+05  1.15652e+03  0.00000e+00 -2.18115e+05  1.14868e+05 -1.03247e+05  3.65912e-02  1.00000e+00 -6.47418e+01  0.00000e+00  5.28897e-01 
 5.21143e-03  2.51826e-03  7.09702e-21  3.47944e+00  1.57902e-04  3.59149e+02  3.60047e+02  4.30265e+00  4.33159e+00  4.16948e-02  6.85745e+01  2.20741e+02  8.13352e+04 -2.95865e+05  1.11392e+03  0.00000e+00 -2.13416e+05  1.02691e+05 -1.10725e+05  4.17047e-02  1.00000e+00 -6.84398e+01  0.00000e+00  5.77768e-01 
 5.33068e-03  2.75659e-03  1.33300e-20  3.47944e+00  1.62809e-04  3.59191e+02  3.60047e+02  4.29413e+00  4.32381e+00  4.76051e-02  7.29848e+01  2.14088e+02  1.22154e+05 -3.29930e+05  1.07938e+03  0.00000e+00 -2.06697e+05  9.28349e+04 -1.13862e+05  4.76157e-02  1.00000e+00 -7.28347e+01  0.00000e+00  6.35080e-01 
 5.45775e-03  2.99495e-03  1.25651e-20  3.47944e+00  1.67050e-04  3.59235e+02  3.60047e+02  4.28459e+00  4.31483e+00  5.43798e-02  7.79627e+01  2.08652e+02  1.72520e+05 -3.71817e+05  1.05080e+03  0.00000e+00 -1.98247e+05  8.46017e+04 -1.13645e+05  5.43907e-02  1.00000e+00 -7.77939e+01  0.00000e+00  7.01992e-01 
 5.59212e-03  3.23333e-03  0.00000e+00  3.47944e+00  1.70791e-04  3.59281e+02  3.60047e+02  4.27392e+00  4.30460e+00  6.20801e-02  8.33443e+01  2.04083e+02  2.32731e+05 -4.22002e+05  1.02624e+03  0.00000e+00 -1.88245e+05  7.74805e+04 -1.10765e+05  6.20913e-02  1.00000e+00 -8.31535e+01  0.00000e+00  7.80089e-01 
 5.73326e-03  3.47172e-03  0.00000e+00  3.47944e+00  1.74213e-04  3.59328e+02  3.60047e+02  4.26200e+00  4.29305e+00  7.07744e-02  8.79813e+01  2.00075e+02  3.02814e+05 -4.80846e+05  1.00439e+03  0.00000e+00 -1.77027e+05  7.03250e+04 -1.06702e+05  7.07867e-02  1.00000e+00 -8.77671e+01  0.00000e+00  8.70845e-01 
 5.88069e-03  3.71014e-03 -5.35987e-21  3.47944e+00  1.77476e-04  3.59376e+02  3.60047e+02  4.24868e+00  4.28006e+00  8.04766e-02  9.22671e+01  1.96396e+02  3.82734e+05 -5.48348e+05  9.83838e+02  0.00000e+00 -1.64629e+05  6.36553e+04 -1.00974e+05  8.04916e-02  1.00000e+00 -9.20270e+01  0.00000e+00  9.76397e-01 
 6.03395e-03  3.94857e-03  5.10973e-21  3.47944e+00  1.80738e-04  3.59424e+02  3.60047e+02  4.23379e+00  4.26548e+00  9.12268e-02  9.60283e+01  1.92852e+02  4.71916e+05 -6.24411e+05  9.63860e+02  0.00000e+00 -1.51531e+05  5.73776e+04 -9.41534e+04  9.12440e-02  1.00000e+00 -9.57600e+01  0.00000e+00  1.09905e+00 
 6.19261e-03  4.18701e-03  0.00000e+00  3.47944e+00  1.84149e-04  3.59471e+02  3.60047e+02  4.21713e+00  4.24905e+00  1.03014e-01  9.89439e+01  1.89280e+02  5.69202e+05 -7.08260e+05  9.43411e+02  0.00000e+00 -1.38114e+05  5.13755e+04 -8.67390e+04  1.03031e-01  1.00000e+00 -9.86455e+01  0.00000e+00  1.24135e+00 
 6.35626e-03  4.42546e-03  0.00000e+00  3.47944e+00  1.87849e-04  3.59518e+02  3.60047e+02  4.19846e+00  4.23061e+00  1.15811e-01  1.00805e+02  1.85551e+02  6.72980e+05 -7.98727e+05  9.22049e+02  0.00000e+00 -1.24825e+05  4.56302e+04 -7.91946e+04  1.15828e-01  1.00000e+00 -1.00476e+02  0.00000e+00  1.40654e+00 
 6.52453e-03  4.66392e-03 -8.96437e-21  3.47944e+00  1.91964e-04  3.59564e+02  3.60047e+02  4.17749e+00  4.20985e+00  1.29564e-01  1.01384e+02  1.81574e+02  7.80765e+05 -8.94026e+05  8.99036e+02  0.00000e+00 -1.12362e+05  4.01297e+04 -7.22327e+04  1.29582e-01  1.00000e+00 -1.01022e+02  0.00000e+00  1.59800e+00 
 6.69707e-03  4.90238e-03  1.72236e-20  3.47944e+00  1.96585e-04  3.59608e+02  3.60047e+02  4.15394e+00  4.18655e+00  1.44111e-01  1.00518e+02  1.77306e+02  8.89336e+05 -9.91336e+05  8.74347e+02  0.00000e+00 -1.01125e+05  3.49183e+04 -6.62070e+04  1.44130e-01  1.00000e+00 -1.00125e+02  0.00000e+00  1.81898e+00 
 6.87356e-03  5.14086e-03  8.28595e-21  3.47944e+00  2.01762e-04  3.59651e+02  3.60047e+02  4.12748e+00  4.16037e+00  1.59253e-01  9.81345e+01  1.72757e+02  9.95864e+05 -1.08786e+06  8.47492e+02  0.00000e+00 -9.11473e+04  3.00454e+04 -6.11020e+04  1.59274e-01  1.00000e+00 -9.77118e+01  0.00000e+00  2.07415e+00 
 7.05370e-03  5.37934e-03 -1.59677e-20  3.47944e+00  2.07499e-04  3.59692e+02  3.60047e+02  4.09779e+00  4.13101e+00  1.74796e-01  9.43274e+01  1.67981e+02  1.09689e+06 -1.18079e+06  8.19368e+02  0.00000e+00 -8.30809e+04  2.55723e+04 -5.75085e+04  1.74819e-01  1.00000e+00 -9.38772e+01  0.00000e+00  2.36673e+00 
 7.23722e-03  5.61783e-03  0.00000e+00  3.47944e+00  2.13728e-04  3.59730e+02  3.60047e+02  4.06462e+00  4.09819e+00  1.90523e-01  8.92467e+01  1.63086e+02  1.19048e+06 -1.26827e+06  7.90077e+02  0.00000e+00 -7.70059e+04  2.15392e+04 -5.54668e+04  1.90549e-01  1.00000e+00 -8.87720e+01  0.00000e+00  2.70201e+00 
 7.42387e-03  5.85632e-03  0.00000e+00  3.47944e+00  2.20318e-04  3.59766e+02  3.60047e+02  4.02773e+00  4.06168e+00  2.06178e-01  8.31567e+01  1.58208e+02  1.27532e+06 -1.34890e+06  7.60607e+02  0.00000e+00 -7.28202e+04  1.79792e+04 -5.48410e+04  2.06206e-01  1.00000e+00 -8.26605e+01  0.00000e+00  3.08447e+00 
 7.61342e-03  6.09482e-03  0.00000e+00  3.47944e+00  2.27051e-04  3.59801e+02  3.60048e+02  3.98700e+00  4.02132e+00  2.21585e-01  7.63422e+01  1.53516e+02  1.35208e+06 -1.42346e+06  7.31512e+02  0.00000e+00 -7.06432e+04  1.48910e+04 -5.57522e+04  2.21618e-01  1.00000e+00 -7.58275e+01  0.00000e+00  3.52135e+00 
 7.80566e-03  6.33332e-03  0.00000e+00  3.47944e+00  2.33671e-04  3.59833e+02  3.60048e+02  3.94223e+00  3.97689e+00  2.36559e-01  6.90888e+01  1.49168e+02  1.42213e+06 -1.49315e+06  7.03836e+02  0.00000e+00 -7.03134e+04  1.22544e+04 -5.80590e+04  2.36587e-01  1.00000e+00 -6.85576e+01  0.00000e+00  4.01921e+00 
 8.00039e-03  6.57182e-03  0.00000e+00  3.47944e+00  2.39829e-04  3.59864e+02  3.60048e+02  3.89339e+00  3.92828e+00  2.50953e-01  6.16342e+01  1.45338e+02  1.48943e+06 -1.56167e+06  6.78026e+02  0.00000e+00 -7.15652e+04  1.00286e+04 -6.15366e+04  2.50986e-01  1.00000e+00 -6.10877e+01  0.00000e+00  4.59166e+00 
 8.19744e-03  6.81033e-03  1.31016e-20  3.47944e+00  2.45220e-04  3.59893e+02  3.60048e+02  3.84001e+00  3.87501e+00  2.64756e-01  5.41397e+01  1.42144e+02  1.55730e+06 -1.63281e+06  6.54893e+02  0.00000e+00 -7.48516e+04  8.15398e+03 -6.66976e+04  2.64790e-01  1.00000e+00 -5.35778e+01  0.00000e+00  5.25153e+00 
 8.39664e-03  7.04884e-03  0.00000e+00  3.47944e+00  2.49430e-04  3.59921e+02  3.60048e+02  3.78197e+00  3.81688e+00  2.77894e-01  4.66828e+01  1.39745e+02  1.63258e+06 -1.71298e+06  6.34654e+02  0.00000e+00 -7.97607e+04  6.57206e+03 -7.31886e+04  2.77929e-01  1.00000e+00 -4.61040e+01  0.00000e+00  6.02707e+00 
 8.59784e-03  7.28736e-03  0.00000e+00  3.47944e+00  2.52184e-04  3.59947e+02  3.60048e+02  3.71800e+00  3.75259e+00  2.90465e-01  3.92242e+01  1.38220e+02  1.72004e+06 -1.80815e+06  6.17792e+02  0.00000e+00 -8.74983e+04  5.21029e+03 -8.22880e+04  2.90500e-01  1.00000e+00 -3.86256e+01  0.00000e+00  6.94548e+00 
 8.80092e-03  7.52587e-03  0.00000e+00  3.47944e+00  2.53062e-04  3.59973e+02  3.60049e+02  3.64830e+00  3.68225e+00  3.02500e-01  3.16385e+01  1.37740e+02  1.82985e+06 -1.92882e+06  6.04410e+02  0.00000e+00 -9.83709e+04  4.00336e+03 -9.43676e+04  3.02536e-01  1.00000e+00 -3.10153e+01  0.00000e+00  8.06673e+00 
 9.00573e-03  7.76439e-03 -1.17014e-20  3.47944e+00  2.51835e-04  3.59999e+02  3.60049e+02  3.56910e+00  3.60210e+00  3.14149e-01  2.36165e+01  1.38412e+02  1.97052e+06 -2.08564e+06  5.94452e+02  0.00000e+00 -1.14521e+05  2.86790e+03 -1.11653e+05  3.14185e-01  1.00000e+00 -2.29619e+01  0.00000e+00  9.45734e+00 
 9.21216e-03  8.00291e-03  0.00000e+00  3.47944e+00  2.48006e-04  3.60025e+02  3.60049e+02  3.48293e+00  3.51459e+00  3.25408e-01  1.46766e+01  1.40551e+02  2.16285e+06 -2.30005e+06  5.88450e+02  0.00000e+00 -1.36610e+05  1.71174e+03 -1.34898e+05  3.25445e-01  1.00000e+00 -1.39802e+01  0.00000e+00  1.12696e+01 
 9.42012e-03  8.24144e-03  0.00000e+00  3.47944e+00  2.41360e-04  3.60053e+02  3.60049e+02  3.37843e+00  3.40836e+00  3.36588e-01  3.86248e+00  1.44421e+02  2.42622e+06 -2.59878e+06  5.86559e+02  0.00000e+00 -1.71976e+05  3.78343e+02 -1.71598e+05  3.36626e-01  1.00000e+00 -3.11050e+00  0.00000e+00  1.36742e+01 
 9.62949e-03  8.47996e-03  0.00000e+00  3.47944e+00  2.31166e-04  3.60083e+02  3.60050e+02  3.26340e+00  3.29066e+00  3.47675e-01 -2.36070e+01  1.50791e+02  2.81937e+06 -3.04341e+06  5.90726e+02  0.00000e+00 -2.23449e+05 -3.11734e+03 -2.26566e+05  3.47723e-01  1.00000e+00  2.53556e+01  0.00000e+00  1.71617e+01 
 9.84019e-03  8.71849e-03  0.00000e+00  3.47944e+00  2.16858e-04  3.60122e+02  3.60050e+02  3.10866e+00  3.13346e+00  3.58772e-01 -7.45882e+01  1.60741e+02  3.42440e+06 -3.73728e+06  6.00122e+02  0.00000e+00 -3.12284e+05 -9.72261e+03 -3.22006e+05  3.58820e-01  1.00000e+00  7.65528e+01  0.00000e+00  2.24006e+01 
 1.00521e-02  8.95702e-03  0.00000e+00  3.47944e+00  1.96733e-04  3.60183e+02  3.60051e+02  2.93681e+00  2.95916e+00  3.69950e-01 -1.77849e+02  1.77187e+02  4.53170e+06 -4.98310e+06  6.19730e+02  0.00000e+00 -4.50783e+05 -2.44591e+04 -4.75242e+05  3.70004e-01  1.00000e+00  1.80153e+02  0.00000e+00  3.20241e+01 
 1.02653e-02  9.19555e-03  0.00000e+00  3.47944e+00  1.69923e-04  3.60309e+02  3.60051e+02  2.65611e+00  2.67516e+00  3.81797e-01 -4.65552e+02  2.05146e+02  6.85710e+06 -7.52474e+06  6.43628e+02  0.00000e+00 -6.66998e+05 -7.13465e+04 -7.38345e+05  3.81849e-01  1.00000e+00  4.68418e+02  0.00000e+00  5.33276e+01 
 1.04795e-02  9.43408e-03  0.00000e+00  3.47944e+00  1.35711e-04  3.60729e+02  3.60052e+02  2.21965e+00  2.23146e+00  3.97753e-01 -5.03275e+03  2.56865e+02  1.38132e+07 -1.40557e+07  6.99916e+02  2.45643e+06  2.21461e+06 -2.29836e+06 -8.37439e+04  3.97829e-01  1.00000e+00  5.03667e+03  3.19737e+03  1.35069e+02 
