# Code_Saturne plot output (1D profile)
#
# Iteration output: 4217
# Time output:      2.30006e+01
#
#COLUMN_TITLES: Distance | X | Y | Z | diameter_Field2 | temp_Field1 | temp_Field2 | Velocity_Field1[Z] | Velocity_Field2[Z] | vol_f_Field2 | mass_trans_Field1 | Xd_Field2 | BK | COAL | COMP | NUCL | W1 | MT | SMBR | ALPBB | CONDNUM | GAMA | GAMANUC | epsilon_Field1
 4.56474e-03  1.39645e-04  0.00000e+00  3.47944e+00  1.06106e-04  3.59725e+02  3.60051e+02  4.80236e+00  4.82092e+00  7.63940e-02  7.66938e+01  3.28430e+02  3.71327e+02 -6.86212e+05  1.99179e+03  0.00000e+00 -6.83849e+05  7.85199e+04 -6.05329e+05  7.64006e-02  1.00000e+00 -7.67083e+01  0.00000e+00  4.41696e-01 
 4.57812e-03  3.76525e-04  4.25872e-21  3.47944e+00  1.28938e-04  3.59726e+02  3.60051e+02  4.80380e+00  4.82640e+00  7.73698e-02  5.94809e+01  2.70272e+02  5.80947e+03 -4.99256e+05  1.64731e+03  0.00000e+00 -4.91799e+05  4.94836e+04 -4.42316e+05  7.73753e-02  1.00000e+00 -5.94922e+01  0.00000e+00  4.47527e-01 
 4.60371e-03  6.13858e-04  0.00000e+00  3.47944e+00  1.47705e-04  3.59729e+02  3.60051e+02  4.81003e+00  4.84233e+00  7.92350e-02  5.07581e+01  2.35932e+02  2.30588e+04 -4.07895e+05  1.42013e+03  0.00000e+00 -3.83416e+05  3.59948e+04 -3.47422e+05  7.92392e-02  1.00000e+00 -5.07678e+01  0.00000e+00  4.59169e-01 
 4.64138e-03  8.51483e-04  0.00000e+00  3.47944e+00  1.61919e-04  3.59734e+02  3.60051e+02  4.80050e+00  4.83289e+00  8.19511e-02  4.58111e+01  2.15220e+02  4.93502e+04 -3.64223e+05  1.30366e+03  0.00000e+00 -3.13569e+05  2.86540e+04 -2.84915e+05  8.19521e-02  1.00000e+00 -4.58201e+01  0.00000e+00  4.76433e-01 
 4.69084e-03  1.08931e-03  0.00000e+00  3.47944e+00  1.72451e-04  3.59741e+02  3.60051e+02  4.80757e+00  4.84590e+00  8.54665e-02  4.34512e+01  2.02076e+02  8.00570e+04 -3.45848e+05  1.21699e+03  0.00000e+00 -2.64574e+05  2.44703e+04 -2.40104e+05  8.54616e-02  1.00000e+00 -4.34599e+01  0.00000e+00  5.00138e-01 
 4.75174e-03  1.32727e-03  1.05001e-20  3.47944e+00  1.80073e-04  3.59750e+02  3.60051e+02  4.80534e+00  4.84450e+00  8.99150e-02  4.22487e+01  1.93522e+02  1.13257e+05 -3.44006e+05  1.17093e+03  0.00000e+00 -2.29578e+05  2.16599e+04 -2.07918e+05  8.99054e-02  1.00000e+00 -4.22574e+01  0.00000e+00  5.31251e-01 
 4.82366e-03  1.56534e-03  0.00000e+00  3.47944e+00  1.85485e-04  3.59761e+02  3.60051e+02  4.80004e+00  4.84151e+00  9.54753e-02  4.20540e+01  1.87876e+02  1.48462e+05 -3.54616e+05  1.13065e+03  0.00000e+00 -2.05024e+05  1.97119e+04 -1.85312e+05  9.54665e-02  1.00000e+00 -4.20630e+01  0.00000e+00  5.69679e-01 
 4.90611e-03  1.80349e-03  8.81027e-21  3.47944e+00  1.89264e-04  3.59773e+02  3.60051e+02  4.78034e+00  4.81708e+00  1.02021e-01  4.21038e+01  1.84125e+02  1.85315e+05 -3.74613e+05  1.11610e+03  0.00000e+00 -1.88182e+05  1.80976e+04 -1.70084e+05  1.02026e-01  1.00000e+00 -4.21131e+01  0.00000e+00  6.14536e-01 
 4.99859e-03  2.04170e-03  0.00000e+00  3.47944e+00  1.91855e-04  3.59787e+02  3.60051e+02  4.78581e+00  4.82150e+00  1.09279e-01  4.25429e+01  1.81638e+02  2.26002e+05 -4.02256e+05  1.10627e+03  0.00000e+00 -1.75148e+05  1.68396e+04 -1.58308e+05  1.09295e-01  1.00000e+00 -4.25528e+01  0.00000e+00  6.68813e-01 
 5.10055e-03  2.27996e-03  7.58893e-21  3.47944e+00  1.93662e-04  3.59802e+02  3.60051e+02  4.78555e+00  4.82708e+00  1.17617e-01  4.34052e+01  1.79944e+02  2.73925e+05 -4.38769e+05  1.08385e+03  0.00000e+00 -1.63760e+05  1.58160e+04 -1.47944e+05  1.17623e-01  1.00000e+00 -4.34159e+01  0.00000e+00  7.36874e-01 
 5.21143e-03  2.51826e-03  7.09702e-21  3.47944e+00  1.94950e-04  3.59818e+02  3.60051e+02  4.77422e+00  4.81539e+00  1.27104e-01  4.40681e+01  1.78755e+02  3.28098e+05 -4.83787e+05  1.07715e+03  0.00000e+00 -1.54612e+05  1.47626e+04 -1.39849e+05  1.27097e-01  1.00000e+00 -4.40796e+01  0.00000e+00  8.17241e-01 
 5.33068e-03  2.75659e-03  1.33300e-20  3.47944e+00  1.95904e-04  3.59835e+02  3.60051e+02  4.76422e+00  4.80698e+00  1.37630e-01  4.46715e+01  1.77884e+02  3.87903e+05 -5.36777e+05  1.06298e+03  0.00000e+00 -1.47811e+05  1.37530e+04 -1.34058e+05  1.37623e-01  1.00000e+00 -4.46840e+01  0.00000e+00  9.10020e-01 
 5.45775e-03  2.99495e-03  1.25651e-20  3.47944e+00  1.96665e-04  3.59852e+02  3.60051e+02  4.74757e+00  4.78675e+00  1.49002e-01  4.48050e+01  1.77196e+02  4.53175e+05 -5.97032e+05  1.06182e+03  0.00000e+00 -1.42795e+05  1.26909e+04 -1.30105e+05  1.49010e-01  1.00000e+00 -4.48185e+01  0.00000e+00  1.01641e+00 
 5.59212e-03  3.23333e-03  0.00000e+00  3.47944e+00  1.97345e-04  3.59870e+02  3.60051e+02  4.73992e+00  4.77772e+00  1.60981e-01  4.46220e+01  1.76585e+02  5.25641e+05 -6.64024e+05  1.06116e+03  0.00000e+00 -1.37323e+05  1.16584e+04 -1.25664e+05  1.60991e-01  1.00000e+00 -4.46367e+01  0.00000e+00  1.14102e+00 
 5.73326e-03  3.47172e-03  0.00000e+00  3.47944e+00  1.98077e-04  3.59887e+02  3.60051e+02  4.72762e+00  4.76687e+00  1.73792e-01  4.41380e+01  1.75933e+02  6.06992e+05 -7.39025e+05  1.05158e+03  0.00000e+00 -1.30981e+05  1.06435e+04 -1.20337e+05  1.73792e-01  1.00000e+00 -4.41540e+01  0.00000e+00  1.28956e+00 
 5.88069e-03  3.71014e-03 -5.35987e-21  3.47944e+00  1.98946e-04  3.59905e+02  3.60051e+02  4.70959e+00  4.74859e+00  1.87347e-01  4.31498e+01  1.75165e+02  6.94447e+05 -8.20883e+05  1.04246e+03  0.00000e+00 -1.25393e+05  9.61086e+03 -1.15782e+05  1.87343e-01  1.00000e+00 -4.31670e+01  0.00000e+00  1.46142e+00 
 6.03395e-03  3.94857e-03  5.10973e-21  3.47944e+00  1.99995e-04  3.59921e+02  3.60051e+02  4.68968e+00  4.72737e+00  2.01342e-01  4.16261e+01  1.74246e+02  7.85960e+05 -9.07649e+05  1.03542e+03  0.00000e+00 -1.20654e+05  8.58210e+03 -1.12072e+05  2.01340e-01  1.00000e+00 -4.16446e+01  0.00000e+00  1.65749e+00 
 6.19261e-03  4.18701e-03  0.00000e+00  3.47944e+00  2.01251e-04  3.59937e+02  3.60051e+02  4.66863e+00  4.70553e+00  2.15569e-01  3.96179e+01  1.73159e+02  8.81143e+05 -9.98087e+05  1.02642e+03  0.00000e+00 -1.15918e+05  7.58174e+03 -1.08336e+05  2.15569e-01  1.00000e+00 -3.96377e+01  0.00000e+00  1.88201e+00 
 6.35626e-03  4.42546e-03  0.00000e+00  3.47944e+00  2.02740e-04  3.59953e+02  3.60051e+02  4.64487e+00  4.68131e+00  2.29982e-01  3.71838e+01  1.71888e+02  9.78956e+05 -1.09141e+06  1.01496e+03  0.00000e+00 -1.11442e+05  6.62152e+03 -1.04821e+05  2.29981e-01  1.00000e+00 -3.72049e+01  0.00000e+00  2.13895e+00 
 6.52453e-03  4.66392e-03 -8.96437e-21  3.47944e+00  2.04449e-04  3.59967e+02  3.60051e+02  4.61772e+00  4.65368e+00  2.44385e-01  3.43731e+01  1.70451e+02  1.07811e+06 -1.18620e+06  1.00158e+03  0.00000e+00 -1.07080e+05  5.71261e+03 -1.01368e+05  2.44384e-01  1.00000e+00 -3.43954e+01  0.00000e+00  2.43180e+00 
 6.69707e-03  4.90238e-03  1.72236e-20  3.47944e+00  2.06350e-04  3.59980e+02  3.60051e+02  4.58729e+00  4.62267e+00  2.58644e-01  3.12707e+01  1.68881e+02  1.17666e+06 -1.28104e+06  9.87167e+02  0.00000e+00 -1.03393e+05  4.86579e+03 -9.85269e+04  2.58642e-01  1.00000e+00 -3.12941e+01  0.00000e+00  2.76207e+00 
 6.87356e-03  5.14086e-03  8.28595e-21  3.47944e+00  2.08376e-04  3.59993e+02  3.60051e+02  4.55368e+00  4.58847e+00  2.72553e-01  2.79613e+01  1.67239e+02  1.27421e+06 -1.37501e+06  9.71582e+02  0.00000e+00 -9.98293e+04  4.08922e+03 -9.57401e+04  2.72550e-01  1.00000e+00 -2.79858e+01  0.00000e+00  3.13396e+00 
 7.05370e-03  5.37934e-03 -1.59677e-20  3.47944e+00  2.10460e-04  3.60004e+02  3.60051e+02  4.51679e+00  4.55104e+00  2.86050e-01  2.45496e+01  1.65584e+02  1.37014e+06 -1.46788e+06  9.55431e+02  0.00000e+00 -9.67852e+04  3.38758e+03 -9.33976e+04  2.86047e-01  1.00000e+00 -2.45751e+01  0.00000e+00  3.55098e+00 
 7.23722e-03  5.61783e-03  0.00000e+00  3.47944e+00  2.12499e-04  3.60014e+02  3.60051e+02  4.47651e+00  4.51020e+00  2.99083e-01  2.11131e+01  1.63995e+02  1.46500e+06 -1.56030e+06  9.38906e+02  0.00000e+00 -9.43620e+04  2.76033e+03 -9.16017e+04  2.99078e-01  1.00000e+00 -2.11396e+01  0.00000e+00  4.01912e+00 
 7.42387e-03  5.85632e-03  0.00000e+00  3.47944e+00  2.14391e-04  3.60024e+02  3.60051e+02  4.43270e+00  4.46584e+00  3.11567e-01  1.77225e+01  1.62549e+02  1.55952e+06 -1.65298e+06  9.22663e+02  0.00000e+00 -9.25312e+04  2.20525e+03 -9.03259e+04  3.11561e-01  1.00000e+00 -1.77499e+01  0.00000e+00  4.54412e+00 
 7.61342e-03  6.09482e-03  0.00000e+00  3.47944e+00  2.16004e-04  3.60032e+02  3.60051e+02  4.38531e+00  4.41784e+00  3.23516e-01  1.44241e+01  1.61335e+02  1.65556e+06 -1.74807e+06  9.07008e+02  0.00000e+00 -9.16030e+04  1.71636e+03 -8.98866e+04  3.23509e-01  1.00000e+00 -1.44524e+01  0.00000e+00  5.13581e+00 
 7.80566e-03  6.33332e-03  0.00000e+00  3.47944e+00  2.17225e-04  3.60040e+02  3.60051e+02  4.33409e+00  4.36596e+00  3.34903e-01  1.12479e+01  1.60430e+02  1.75509e+06 -1.84762e+06  8.92458e+02  0.00000e+00 -9.16456e+04  1.28648e+03 -9.03591e+04  3.34895e-01  1.00000e+00 -1.12772e+01  0.00000e+00  5.80469e+00 
 8.00039e-03  6.57182e-03  0.00000e+00  3.47944e+00  2.17902e-04  3.60047e+02  3.60052e+02  4.27886e+00  4.30999e+00  3.45768e-01  8.20276e+00  1.59932e+02  1.86176e+06 -1.95557e+06  8.79255e+02  0.00000e+00 -9.29301e+04  9.06870e+02 -9.20233e+04  3.45760e-01  1.00000e+00 -8.23294e+00  0.00000e+00  6.56946e+00 
 8.19744e-03  6.81033e-03  1.31016e-20  3.47944e+00  2.17924e-04  3.60054e+02  3.60052e+02  4.21895e+00  4.24926e+00  3.56140e-01  5.27761e+00  1.59916e+02  1.97888e+06 -2.07558e+06  8.67805e+02  0.00000e+00 -9.58399e+04  5.67692e+02 -9.52722e+04  3.56133e-01  1.00000e+00 -5.30884e+00  0.00000e+00  7.44985e+00 
 8.39664e-03  7.04884e-03  0.00000e+00  3.47944e+00  2.17118e-04  3.60060e+02  3.60052e+02  4.15428e+00  4.18362e+00  3.66063e-01  2.44475e+00  1.60511e+02  2.11266e+06 -2.21421e+06  8.58440e+02  0.00000e+00 -1.00687e+05  2.58670e+02 -1.00428e+05  3.66055e-01  1.00000e+00 -2.47715e+00  0.00000e+00  8.48175e+00 
 8.59784e-03  7.28736e-03  0.00000e+00  3.47944e+00  2.15381e-04  3.60065e+02  3.60052e+02  4.08299e+00  4.11125e+00  3.75603e-01 -8.31198e-01  1.61806e+02  2.26881e+06 -2.37802e+06  8.51321e+02  0.00000e+00 -1.08353e+05 -7.81227e+01 -1.08431e+05  3.75597e-01  1.00000e+00  7.61491e-01  0.00000e+00  9.70502e+00 
 8.80092e-03  7.52587e-03  0.00000e+00  3.47944e+00  2.12502e-04  3.60070e+02  3.60053e+02  4.00612e+00  4.03311e+00  3.84847e-01 -7.06977e+00  1.63999e+02  2.45882e+06 -2.57949e+06  8.47148e+02  0.00000e+00 -1.19815e+05 -7.10083e+02 -1.20525e+05  3.84843e-01  1.00000e+00  6.99698e+00  0.00000e+00  1.11960e+01 
 9.00573e-03  7.76439e-03 -1.17014e-20  3.47944e+00  2.08345e-04  3.60075e+02  3.60053e+02  3.91794e+00  3.94352e+00  3.93867e-01 -1.40421e+01  1.67273e+02  2.69471e+06 -2.83286e+06  8.45648e+02  0.00000e+00 -1.37312e+05 -1.41246e+03 -1.38724e+05  3.93867e-01  1.00000e+00  1.39656e+01  0.00000e+00  1.30426e+01 
 9.21216e-03  8.00291e-03  0.00000e+00  3.47944e+00  2.02555e-04  3.60080e+02  3.60053e+02  3.82412e+00  3.84808e+00  4.02676e-01 -2.27860e+01  1.72056e+02  3.00587e+06 -3.16824e+06  8.48153e+02  0.00000e+00 -1.61526e+05 -2.31033e+03 -1.63836e+05  4.02676e-01  1.00000e+00  2.27048e+01  0.00000e+00  1.54502e+01 
 9.42012e-03  8.24144e-03  0.00000e+00  3.47944e+00  1.94965e-04  3.60087e+02  3.60054e+02  3.70779e+00  3.72992e+00  4.11487e-01 -3.54010e+01  1.78755e+02  3.42135e+06 -3.62346e+06  8.54564e+02  0.00000e+00 -2.01253e+05 -3.65332e+03 -2.04906e+05  4.11491e-01  1.00000e+00  3.53139e+01  0.00000e+00  1.86390e+01 
 9.62949e-03  8.47996e-03  0.00000e+00  3.47944e+00  1.84986e-04  3.60097e+02  3.60054e+02  3.58329e+00  3.60283e+00  4.20364e-01 -5.64547e+01  1.88399e+02  4.02678e+06 -4.28853e+06  8.70059e+02  0.00000e+00 -2.60873e+05 -6.01532e+03 -2.66888e+05  4.20370e-01  1.00000e+00  5.63597e+01  0.00000e+00  2.32504e+01 
 9.84019e-03  8.71849e-03  0.00000e+00  3.47944e+00  1.72268e-04  3.60114e+02  3.60055e+02  3.41114e+00  3.42845e+00  4.29293e-01 -9.77885e+01  2.02310e+02  4.94016e+06 -5.30519e+06  8.89755e+02  0.00000e+00 -3.64136e+05 -1.09627e+04 -3.75098e+05  4.29302e-01  1.00000e+00  9.76829e+01  0.00000e+00  3.01437e+01 
 1.00521e-02  8.95702e-03  0.00000e+00  3.47944e+00  1.55601e-04  3.60148e+02  3.60055e+02  3.22806e+00  3.24331e+00  4.38469e-01 -1.97915e+02  2.23983e+02  6.57729e+06 -7.09356e+06  9.24221e+02  0.00000e+00 -5.15340e+05 -2.40617e+04 -5.39402e+05  4.38477e-01  1.00000e+00  1.97793e+02  0.00000e+00  4.27993e+01 
 1.02653e-02  9.19555e-03  0.00000e+00  3.47944e+00  1.34739e-04  3.60239e+02  3.60056e+02  2.91519e+00  2.92835e+00  4.48183e-01 -5.23562e+02  2.58667e+02  9.92374e+06 -1.05993e+07  9.55840e+02  0.00000e+00 -6.74657e+05 -7.19348e+04 -7.46591e+05  4.48195e-01  1.00000e+00  5.23416e+02  0.00000e+00  7.06736e+01 
 1.04795e-02  9.43408e-03  0.00000e+00  3.47944e+00  1.10977e-04  3.60616e+02  3.60057e+02  2.45265e+00  2.46064e+00  4.61616e-01 -5.57983e+03  3.14058e+02  1.92694e+07 -1.85286e+07  1.01117e+03  1.57227e+06  2.31407e+06 -2.39721e+06 -8.31401e+04  4.61604e-01  1.00000e+00  5.57964e+03  3.29249e+03  1.77380e+02 
