# Code_Saturne plot output (1D profile)
#
# Iteration output: 4574
# Time output:      2.30007e+01
#
#COLUMN_TITLES: Distance | X | Y | Z | diameter_Field2 | temp_Field1 | temp_Field2 | Velocity_Field1[Z] | Velocity_Field2[Z] | vol_f_Field2 | mass_trans_Field1 | Xd_Field2 | BK | COAL | COMP | NUCL | W1 | MT | SMBR | ALPBB | CONDNUM | GAMA | GAMANUC | epsilon_Field1
 4.56474e-03  1.39645e-04  0.00000e+00  3.47944e+00  2.48089e-04  3.59885e+02  3.60054e+02  5.10606e+00  5.16344e+00  1.67772e-01  3.05830e+01  1.40443e+02  4.01166e+05 -7.08613e+05  9.71135e+02  0.00000e+00 -3.06476e+05  6.62390e+03 -2.99852e+05  1.67757e-01  1.00000e+00 -3.07536e+01  0.00000e+00  7.88455e-01 
 4.57812e-03  3.76525e-04  4.25872e-21  3.47944e+00  2.59987e-04  3.59886e+02  3.60054e+02  5.10521e+00  5.16584e+00  1.69005e-01  2.88444e+01  1.34016e+02  4.13597e+05 -6.60039e+05  9.26813e+02  0.00000e+00 -2.45515e+05  5.91778e+03 -2.39598e+05  1.68992e-01  1.00000e+00 -2.90062e+01  0.00000e+00  7.98377e-01 
 4.60371e-03  6.13858e-04  0.00000e+00  3.47944e+00  2.67306e-04  3.59887e+02  3.60054e+02  5.10329e+00  5.16574e+00  1.71130e-01  2.79352e+01  1.30346e+02  4.26041e+05 -6.41122e+05  9.01568e+02  0.00000e+00 -2.14180e+05  5.50525e+03 -2.08674e+05  1.71118e-01  1.00000e+00 -2.80934e+01  0.00000e+00  8.17807e-01 
 4.64138e-03  8.51483e-04  0.00000e+00  3.47944e+00  2.72211e-04  3.59890e+02  3.60054e+02  5.10045e+00  5.16390e+00  1.74196e-01  2.74288e+01  1.27997e+02  4.41204e+05 -6.38716e+05  8.85303e+02  0.00000e+00 -1.96627e+05  5.21498e+03 -1.91412e+05  1.74184e-01  1.00000e+00 -2.75865e+01  0.00000e+00  8.47137e-01 
 4.69084e-03  1.08931e-03  0.00000e+00  3.47944e+00  2.76180e-04  3.59894e+02  3.60054e+02  5.09657e+00  5.16063e+00  1.78222e-01  2.70814e+01  1.26158e+02  4.59837e+05 -6.45725e+05  8.72453e+02  0.00000e+00 -1.85016e+05  4.96082e+03 -1.80055e+05  1.78210e-01  1.00000e+00 -2.72402e+01  0.00000e+00  8.86928e-01 
 4.75174e-03  1.32727e-03  1.05001e-20  3.47944e+00  2.79926e-04  3.59898e+02  3.60054e+02  5.09158e+00  5.15608e+00  1.83181e-01  2.67724e+01  1.24470e+02  4.81943e+05 -6.58852e+05  8.60557e+02  0.00000e+00 -1.76048e+05  4.70830e+03 -1.71340e+05  1.83169e-01  1.00000e+00 -2.69335e+01  0.00000e+00  9.37990e-01 
 4.82366e-03  1.56534e-03  0.00000e+00  3.47944e+00  2.83838e-04  3.59903e+02  3.60054e+02  5.08540e+00  5.15025e+00  1.89057e-01  2.64323e+01  1.22754e+02  5.07154e+05 -6.76272e+05  8.48380e+02  0.00000e+00 -1.68270e+05  4.44276e+03 -1.63827e+05  1.89044e-01  1.00000e+00 -2.65963e+01  0.00000e+00  1.00130e+00 
 4.90611e-03  1.80349e-03  8.81027e-21  3.47944e+00  2.88145e-04  3.59909e+02  3.60054e+02  5.07790e+00  5.14309e+00  1.95791e-01  2.60117e+01  1.20919e+02  5.34906e+05 -6.96647e+05  8.35270e+02  0.00000e+00 -1.60906e+05  4.15950e+03 -1.56747e+05  1.95778e-01  1.00000e+00 -2.61789e+01  0.00000e+00  1.07802e+00 
 4.99859e-03  2.04170e-03  0.00000e+00  3.47944e+00  2.92996e-04  3.59916e+02  3.60054e+02  5.06893e+00  5.13450e+00  2.03332e-01  2.54756e+01  1.18917e+02  5.64431e+05 -7.18890e+05  8.20882e+02  0.00000e+00 -1.53639e+05  3.85880e+03 -1.49780e+05  2.03318e-01  1.00000e+00 -2.56464e+01  0.00000e+00  1.16947e+00 
 5.10055e-03  2.27996e-03  7.58893e-21  3.47944e+00  2.98481e-04  3.59923e+02  3.60054e+02  5.05834e+00  5.12435e+00  2.11588e-01  2.47986e+01  1.16732e+02  5.94868e+05 -7.41955e+05  8.05096e+02  0.00000e+00 -1.46282e+05  3.54450e+03 -1.42738e+05  2.11574e-01  1.00000e+00 -2.49730e+01  0.00000e+00  1.27710e+00 
 5.21143e-03  2.51826e-03  7.09702e-21  3.47944e+00  3.04647e-04  3.59930e+02  3.60054e+02  5.04597e+00  5.11249e+00  2.20456e-01  2.39657e+01  1.14369e+02  6.25280e+05 -7.64858e+05  7.87927e+02  0.00000e+00 -1.38791e+05  3.22237e+03 -1.35568e+05  2.20440e-01  1.00000e+00 -2.41435e+01  0.00000e+00  1.40243e+00 
 5.33068e-03  2.75659e-03  1.33300e-20  3.47944e+00  3.11492e-04  3.59939e+02  3.60054e+02  5.03165e+00  5.09874e+00  2.29802e-01  2.29728e+01  1.11856e+02  6.54786e+05 -7.86691e+05  7.69527e+02  0.00000e+00 -1.31135e+05  2.89944e+03 -1.28236e+05  2.29786e-01  1.00000e+00 -2.31537e+01  0.00000e+00  1.54701e+00 
 5.45775e-03  2.99495e-03  1.25651e-20  3.47944e+00  3.18981e-04  3.59947e+02  3.60054e+02  5.01523e+00  5.08294e+00  2.39581e-01  2.18325e+01  1.09230e+02  6.82521e+05 -8.06984e+05  7.50125e+02  0.00000e+00 -1.23712e+05  2.58236e+03 -1.21130e+05  2.39566e-01  1.00000e+00 -2.20162e+01  0.00000e+00  1.71238e+00 
 5.59212e-03  3.23333e-03  0.00000e+00  3.47944e+00  3.27004e-04  3.59955e+02  3.60054e+02  4.99658e+00  5.06496e+00  2.49593e-01  2.05575e+01  1.06550e+02  7.08102e+05 -8.25112e+05  7.30056e+02  0.00000e+00 -1.16280e+05  2.27817e+03 -1.14002e+05  2.49578e-01  1.00000e+00 -2.07435e+01  0.00000e+00  1.90045e+00 
 5.73326e-03  3.47172e-03  0.00000e+00  3.47944e+00  3.35421e-04  3.59964e+02  3.60054e+02  4.97562e+00  5.04469e+00  2.59774e-01  1.91753e+01  1.03876e+02  7.31050e+05 -8.41019e+05  7.09833e+02  0.00000e+00 -1.09259e+05  1.99196e+03 -1.07267e+05  2.59761e-01  1.00000e+00 -1.93633e+01  0.00000e+00  2.11217e+00 
 5.88069e-03  3.71014e-03 -5.35987e-21  3.47944e+00  3.44013e-04  3.59973e+02  3.60054e+02  4.95229e+00  5.02205e+00  2.69906e-01  1.77087e+01  1.01282e+02  7.51719e+05 -8.54692e+05  6.89815e+02  0.00000e+00 -1.02283e+05  1.72787e+03 -1.00555e+05  2.69894e-01  1.00000e+00 -1.78984e+01  0.00000e+00  2.34963e+00 
 6.03395e-03  3.94857e-03  5.10973e-21  3.47944e+00  3.52544e-04  3.59982e+02  3.60054e+02  4.92659e+00  4.99699e+00  2.79912e-01  1.61911e+01  9.88318e+01  7.70376e+05 -8.66623e+05  6.70669e+02  0.00000e+00 -9.55763e+04  1.48808e+03 -9.40882e+04  2.79899e-01  1.00000e+00 -1.63824e+01  0.00000e+00  2.61387e+00 
 6.19261e-03  4.18701e-03  0.00000e+00  3.47944e+00  3.60733e-04  3.59991e+02  3.60054e+02  4.89848e+00  4.96942e+00  2.89675e-01  1.46459e+01  9.65884e+01  7.87838e+05 -8.77597e+05  6.52704e+02  0.00000e+00 -8.91059e+04  1.27281e+03 -8.78331e+04  2.89671e-01  1.00000e+00 -1.48386e+01  0.00000e+00  2.90701e+00 
 6.35626e-03  4.42546e-03  0.00000e+00  3.47944e+00  3.68328e-04  3.59999e+02  3.60054e+02  4.86795e+00  4.93929e+00  2.99253e-01  1.30990e+01  9.45969e+01  8.04846e+05 -8.88726e+05  6.36286e+02  0.00000e+00 -8.32432e+04  1.08108e+03 -8.21621e+04  2.99233e-01  1.00000e+00 -1.32934e+01  0.00000e+00  3.23122e+00 
 6.52453e-03  4.66392e-03 -8.96437e-21  3.47944e+00  3.75056e-04  3.60008e+02  3.60054e+02  4.83500e+00  4.90655e+00  3.08571e-01  1.15614e+01  9.29001e+01  8.22537e+05 -9.01163e+05  6.22050e+02  0.00000e+00 -7.80043e+04  9.10694e+02 -7.70936e+04  3.08544e-01  1.00000e+00 -1.17578e+01  0.00000e+00  3.59035e+00 
 6.69707e-03  4.90238e-03  1.72236e-20  3.47944e+00  3.80723e-04  3.60017e+02  3.60054e+02  4.79957e+00  4.87112e+00  3.17624e-01  1.00400e+01  9.15177e+01  8.41708e+05 -9.15872e+05  6.08662e+02  0.00000e+00 -7.35560e+04  7.58971e+02 -7.27970e+04  3.17600e-01  1.00000e+00 -1.02388e+01  0.00000e+00  3.98696e+00 
 6.87356e-03  5.14086e-03  8.28595e-21  3.47944e+00  3.85114e-04  3.60025e+02  3.60054e+02  4.76160e+00  4.83286e+00  3.26357e-01  8.53047e+00  9.04745e+01  8.63586e+05 -9.33902e+05  5.97744e+02  0.00000e+00 -6.97187e+04  6.22802e+02 -6.90959e+04  3.26334e-01  1.00000e+00 -8.73245e+00  0.00000e+00  4.42649e+00 
 7.05370e-03  5.37934e-03 -1.59677e-20  3.47944e+00  3.88144e-04  3.60033e+02  3.60055e+02  4.72090e+00  4.79163e+00  3.34797e-01  7.02825e+00  8.97684e+01  8.88880e+05 -9.56138e+05  5.88798e+02  0.00000e+00 -6.66692e+04  4.98995e+02 -6.61702e+04  3.34779e-01  1.00000e+00 -7.23411e+00  0.00000e+00  4.91380e+00 
 7.23722e-03  5.61783e-03  0.00000e+00  3.47944e+00  3.89698e-04  3.60041e+02  3.60055e+02  4.67736e+00  4.74723e+00  3.42909e-01  5.52087e+00  8.94107e+01  9.18878e+05 -9.83677e+05  5.81750e+02  0.00000e+00 -6.42169e+04  3.84448e+02 -6.38325e+04  3.42893e-01  1.00000e+00 -5.73142e+00  0.00000e+00  5.45803e+00 
 7.42387e-03  5.85632e-03  0.00000e+00  3.47944e+00  3.89804e-04  3.60049e+02  3.60055e+02  4.63065e+00  4.69940e+00  3.50792e-01  3.99426e+00  8.93870e+01  9.54065e+05 -1.01740e+06  5.76520e+02  0.00000e+00 -6.27539e+04  2.76007e+02 -6.24779e+04  3.50776e-01  1.00000e+00 -4.21049e+00  0.00000e+00  6.06663e+00 
 7.61342e-03  6.09482e-03  0.00000e+00  3.47944e+00  3.88377e-04  3.60057e+02  3.60055e+02  4.58068e+00  4.64798e+00  3.58355e-01  2.42995e+00  8.97156e+01  9.96171e+05 -1.05862e+06  5.73018e+02  0.00000e+00 -6.18760e+04  1.70858e+02 -6.17051e+04  3.58339e-01  1.00000e+00 -2.65290e+00  0.00000e+00  6.75532e+00 
 7.80566e-03  6.33332e-03  0.00000e+00  3.47944e+00  3.85522e-04  3.60064e+02  3.60055e+02  4.52678e+00  4.59239e+00  3.65761e-01  8.05452e-01  9.03805e+01  1.04563e+06 -1.10848e+06  5.71149e+02  0.00000e+00 -6.22833e+04  6.58785e+01 -6.22175e+04  3.65744e-01  1.00000e+00 -1.03635e+00  0.00000e+00  7.53555e+00 
 8.00039e-03  6.57182e-03  0.00000e+00  3.47944e+00  3.81133e-04  3.60072e+02  3.60056e+02  4.46909e+00  4.53268e+00  3.72872e-01 -2.11060e+00  9.14218e+01  1.10520e+06 -1.16909e+06  5.70883e+02  0.00000e+00 -6.33194e+04 -9.98434e+01 -6.34192e+04  3.72855e-01  1.00000e+00  1.58295e+00  0.00000e+00  8.43567e+00 
 8.19744e-03  6.81033e-03  1.31016e-20  3.47944e+00  3.75353e-04  3.60079e+02  3.60056e+02  4.40605e+00  4.46739e+00  3.79876e-01 -6.26224e+00  9.28301e+01  1.17566e+06 -1.24218e+06  5.72117e+02  0.00000e+00 -6.59437e+04 -3.59066e+02 -6.63028e+04  3.79856e-01  1.00000e+00  5.71164e+00  0.00000e+00  9.47514e+00 
 8.39664e-03  7.04884e-03  0.00000e+00  3.47944e+00  3.67987e-04  3.60086e+02  3.60056e+02  4.33875e+00  4.39754e+00  3.86650e-01 -1.08868e+01  9.46889e+01  1.26169e+06 -1.33195e+06  5.75106e+02  0.00000e+00 -6.96854e+04 -6.49494e+02 -7.03349e+04  3.86632e-01  1.00000e+00  1.03093e+01  0.00000e+00  1.07060e+01 
 8.59784e-03  7.28736e-03  0.00000e+00  3.47944e+00  3.59156e-04  3.60094e+02  3.60056e+02  4.26304e+00  4.31905e+00  3.93400e-01 -1.62591e+01  9.70178e+01  1.36566e+06 -1.44215e+06  5.79285e+02  0.00000e+00 -7.59111e+04 -9.92891e+02 -7.69040e+04  3.93380e-01  1.00000e+00  1.56500e+01  0.00000e+00  1.21708e+01 
 8.80092e-03  7.52587e-03  0.00000e+00  3.47944e+00  3.48508e-04  3.60102e+02  3.60057e+02  4.18357e+00  4.23654e+00  3.99940e-01 -2.28085e+01  9.99827e+01  1.49715e+06 -1.58157e+06  5.85543e+02  0.00000e+00 -8.38348e+04 -1.42528e+03 -8.52601e+04  3.99921e-01  1.00000e+00  2.21615e+01  0.00000e+00  1.39823e+01 
 9.00573e-03  7.76439e-03 -1.17014e-20  3.47944e+00  3.36176e-04  3.60111e+02  3.60057e+02  4.08828e+00  4.13790e+00  4.06581e-01 -3.12456e+01  1.03651e+02  1.66116e+06 -1.75898e+06  5.93757e+02  0.00000e+00 -9.72300e+04 -2.00382e+03 -9.92338e+04  4.06560e-01  1.00000e+00  3.05532e+01  0.00000e+00  1.62165e+01 
 9.21216e-03  8.00291e-03  0.00000e+00  3.47944e+00  3.21502e-04  3.60123e+02  3.60058e+02  3.99267e+00  4.03862e+00  4.13121e-01 -4.28604e+01  1.08383e+02  1.88168e+06 -1.99649e+06  6.04999e+02  0.00000e+00 -1.14200e+05 -2.84219e+03 -1.17042e+05  4.13104e-01  1.00000e+00  4.21108e+01  0.00000e+00  1.91866e+01 
 9.42012e-03  8.24144e-03  0.00000e+00  3.47944e+00  3.04613e-04  3.60138e+02  3.60058e+02  3.86118e+00  3.90265e+00  4.19837e-01 -6.00246e+01  1.14393e+02  2.17364e+06 -2.31899e+06  6.19679e+02  0.00000e+00 -1.44733e+05 -4.15006e+03 -1.48883e+05  4.19820e-01  1.00000e+00  5.92040e+01  0.00000e+00  2.30619e+01 
 9.62949e-03  8.47996e-03  0.00000e+00  3.47944e+00  2.84275e-04  3.60158e+02  3.60059e+02  3.73876e+00  3.77598e+00  4.26595e-01 -8.80322e+01  1.22578e+02  2.60671e+06 -2.79573e+06  6.40233e+02  0.00000e+00 -1.88374e+05 -6.43986e+03 -1.94814e+05  4.26588e-01  1.00000e+00  8.71153e+01  0.00000e+00  2.87817e+01 
 9.84019e-03  8.71849e-03  0.00000e+00  3.47944e+00  2.60307e-04  3.60191e+02  3.60059e+02  3.54487e+00  3.57748e+00  4.33549e-01 -1.39196e+02  1.33866e+02  3.26363e+06 -3.53456e+06  6.64490e+02  0.00000e+00 -2.70265e+05 -1.09737e+04 -2.81239e+05  4.33545e-01  1.00000e+00  1.38148e+02  0.00000e+00  3.73174e+01 
 1.00521e-02  8.95702e-03  0.00000e+00  3.47944e+00  2.30084e-04  3.60250e+02  3.60060e+02  3.36165e+00  3.39051e+00  4.40751e-01 -2.52536e+02  1.51452e+02  4.47562e+06 -4.87950e+06  7.04411e+02  0.00000e+00 -4.03177e+05 -2.22139e+04 -4.25390e+05  4.40748e-01  1.00000e+00  2.51282e+02  0.00000e+00  5.33313e+01 
 1.02653e-02  9.19555e-03  0.00000e+00  3.47944e+00  1.92911e-04  3.60384e+02  3.60061e+02  3.01301e+00  3.03686e+00  4.48604e-01 -5.80684e+02  1.80639e+02  7.03160e+06 -7.68462e+06  7.48573e+02  0.00000e+00 -6.52271e+05 -5.99889e+04 -7.12260e+05  4.48582e-01  1.00000e+00  5.79089e+02  0.00000e+00  8.82298e+01 
 1.04795e-02  9.43408e-03  0.00000e+00  3.47944e+00  1.46836e-04  3.60842e+02  3.60062e+02  2.52701e+00  2.54140e+00  4.59843e-01 -5.65804e+03  2.37326e+02  1.50348e+07 -1.52016e+07  8.50640e+02  2.05580e+06  1.88986e+06 -1.93875e+06 -4.88922e+04  4.59831e-01  1.00000e+00  5.65577e+03  3.45299e+03  2.22515e+02 
