# Code_Saturne plot output (1D profile)
#
# Iteration output: 3989
# Time output:      2.30004e+01
#
#COLUMN_TITLES: Distance | X | Y | Z | diameter_Field2 | temp_Field1 | temp_Field2 | Velocity_Field1[Z] | Velocity_Field2[Z] | vol_f_Field2 | mass_trans_Field1 | Xd_Field2 | BK | COAL | COMP | NUCL | W1 | MT | SMBR | ALPBB | CONDNUM | GAMA | GAMANUC | epsilon_Field1
 4.56474e-03  1.39645e-04  0.00000e+00  3.47944e+00  1.00000e-05  3.59476e+02  3.60048e+02  4.29395e+00  4.29395e+00  5.36439e-04  3.22849e+01  3.48547e+03  0.00000e+00 -1.79517e+05  1.59538e+04  0.00000e+00 -1.63564e+05  1.27283e+08  1.27120e+08  5.47589e-04  1.00000e+00 -3.21402e+01  0.00000e+00  3.12931e-01 
 4.57812e-03  3.76525e-04  4.25872e-21  3.47944e+00  1.15875e-05  3.59479e+02  3.60048e+02  4.29191e+00  4.29196e+00  1.82043e-03  9.20038e+01  3.00797e+03 2.99643e-258 -4.65363e+05  1.30383e+04  0.00000e+00 -4.52324e+05  9.19572e+07  9.15049e+07  1.84504e-03  1.00000e+00 -9.15920e+01  0.00000e+00  3.15096e-01 
 4.60371e-03  6.13858e-04  0.00000e+00  3.47944e+00  1.80662e-05  3.59484e+02  3.60048e+02  4.29173e+00  4.29218e+00  5.02168e-03  1.30509e+02  1.92928e+03 1.05402e-117 -6.10183e+05  9.05952e+03  0.00000e+00 -6.01123e+05  3.07190e+07  3.01178e+07  5.04610e-03  1.00000e+00 -1.29923e+02  0.00000e+00  3.19328e-01 
 4.64138e-03  8.51483e-04  0.00000e+00  3.47944e+00  2.67021e-05  3.59488e+02  3.60048e+02  4.30071e+00  4.30238e+00  9.11591e-03  1.28254e+02  1.30532e+03  2.32841e-56 -5.77784e+05  6.28802e+03  0.00000e+00 -5.71496e+05  1.13146e+07  1.07431e+07  9.13279e-03  1.00000e+00 -1.27673e+02  0.00000e+00  3.25779e-01 
 4.69084e-03  1.08931e-03  0.00000e+00  3.47944e+00  3.70198e-05  3.59493e+02  3.60048e+02  4.29258e+00  4.29552e+00  1.28470e-02  1.06921e+02  9.41515e+02  1.52963e-28 -4.73221e+05  4.62566e+03  0.00000e+00 -4.68595e+05  4.83987e+06  4.37128e+06  1.28575e-02  1.00000e+00 -1.06432e+02  0.00000e+00  3.34318e-01 
 4.75174e-03  1.32727e-03  1.05001e-20  3.47944e+00  4.81585e-05  3.59500e+02  3.60048e+02  4.29019e+00  4.29484e+00  1.58477e-02  8.68125e+01  7.23750e+02  4.11215e-15 -3.77704e+05  3.57538e+03  0.00000e+00 -3.74128e+05  2.45157e+06  2.07744e+06  1.58550e-02  1.00000e+00 -8.64101e+01  0.00000e+00  3.44776e-01 
 4.82366e-03  1.56534e-03  0.00000e+00  3.47944e+00  5.92296e-05  3.59508e+02  3.60048e+02  4.28826e+00  4.29504e+00  1.84968e-02  7.21025e+01  5.88467e+02  4.10448e-08 -3.13817e+05  2.91042e+03  0.00000e+00 -3.10907e+05  1.41906e+06  1.10815e+06  1.85037e-02  1.00000e+00 -7.17628e+01  0.00000e+00  3.57522e-01 
 4.90611e-03  1.80349e-03  8.81027e-21  3.47944e+00  6.95973e-05  3.59518e+02  3.60048e+02  4.28592e+00  4.29484e+00  2.13246e-02  6.38143e+01  5.00805e+02  3.62928e-04 -2.78585e+05  2.47692e+03  0.00000e+00 -2.76108e+05  9.27266e+05  6.51158e+05  2.13316e-02  1.00000e+00 -6.35079e+01  0.00000e+00  3.72917e-01 
 4.99859e-03  2.04170e-03  0.00000e+00  3.47944e+00  7.90834e-05  3.59530e+02  3.60048e+02  4.28310e+00  4.29399e+00  2.45826e-02  5.97726e+01  4.40733e+02  9.69413e-02 -2.62179e+05  2.18112e+03  0.00000e+00 -2.59997e+05  6.63068e+05  4.03071e+05  2.45901e-02  1.00000e+00 -5.94787e+01  0.00000e+00  3.91333e-01 
 5.10055e-03  2.27996e-03  7.58893e-21  3.47944e+00  8.79282e-05  3.59545e+02  3.60048e+02  4.27971e+00  4.29250e+00  2.83066e-02  5.76573e+01  3.96399e+02  4.21694e+00 -2.56212e+05  1.96188e+03  0.00000e+00 -2.54246e+05  4.99559e+05  2.45314e+05  2.83144e-02  1.00000e+00 -5.73657e+01  0.00000e+00  4.13342e-01 
 5.21143e-03  2.51826e-03  7.09702e-21  3.47944e+00  9.63848e-05  3.59563e+02  3.60048e+02  4.27567e+00  4.29025e+00  3.25656e-02  5.66272e+01  3.61620e+02  6.49970e+01 -2.56808e+05  1.78939e+03  0.00000e+00 -2.54954e+05  3.89014e+05  1.34059e+05  3.25733e-02  1.00000e+00 -5.63310e+01  0.00000e+00  4.39759e-01 
 5.33068e-03  2.75659e-03  1.33300e-20  3.47944e+00  1.04565e-04  3.59582e+02  3.60048e+02  4.27087e+00  4.28717e+00  3.74419e-02  5.62757e+01  3.33329e+02  5.13647e+02 -2.62424e+05  1.64871e+03  0.00000e+00 -2.60262e+05  3.09904e+05  4.96419e+04  3.74489e-02  1.00000e+00 -5.59695e+01  0.00000e+00  4.71492e-01 
 5.45775e-03  2.99495e-03  1.25651e-20  3.47944e+00  1.12440e-04  3.59604e+02  3.60048e+02  4.26526e+00  4.28316e+00  4.30170e-02  5.64215e+01  3.09984e+02  2.53249e+03 -2.72718e+05  1.53235e+03  0.00000e+00 -2.68653e+05  2.51439e+05 -1.72144e+04  4.30252e-02  1.00000e+00 -5.61001e+01  0.00000e+00  5.09621e-01 
 5.59212e-03  3.23333e-03  0.00000e+00  3.47944e+00  1.19864e-04  3.59627e+02  3.60048e+02  4.25874e+00  4.27812e+00  4.93951e-02  5.70191e+01  2.90786e+02  8.76841e+03 -2.88236e+05  1.43628e+03  0.00000e+00 -2.78032e+05  2.07517e+05 -7.05150e+04  4.94065e-02  1.00000e+00 -5.66768e+01  0.00000e+00  5.55514e-01 
 5.73326e-03  3.47172e-03  0.00000e+00  3.47944e+00  1.26615e-04  3.59653e+02  3.60048e+02  4.25124e+00  4.27191e+00  5.66757e-02  5.80641e+01  2.75280e+02  2.31237e+04 -3.10004e+05  1.35818e+03  0.00000e+00 -2.85522e+05  1.74289e+05 -1.11234e+05  5.66895e-02  1.00000e+00 -5.76941e+01  0.00000e+00  6.10828e-01 
 5.88069e-03  3.71014e-03 -5.35987e-21  3.47944e+00  1.32468e-04  3.59680e+02  3.60048e+02  4.24259e+00  4.26432e+00  6.49852e-02  5.93924e+01  2.63117e+02  4.94702e+04 -3.39597e+05  1.29639e+03  0.00000e+00 -2.88830e+05  1.48550e+05 -1.40280e+05  6.49993e-02  1.00000e+00 -5.89875e+01  0.00000e+00  6.77508e-01 
 6.03395e-03  3.94857e-03  5.10973e-21  3.47944e+00  1.37261e-04  3.59708e+02  3.60048e+02  4.23258e+00  4.25533e+00  7.44127e-02  6.05995e+01  2.53929e+02  9.04033e+04 -3.78680e+05  1.25056e+03  0.00000e+00 -2.87026e+05  1.27682e+05 -1.59343e+05  7.44262e-02  1.00000e+00 -6.01539e+01  0.00000e+00  7.57855e-01 
 6.19261e-03  4.18701e-03  0.00000e+00  3.47944e+00  1.40929e-04  3.59738e+02  3.60048e+02  4.22599e+00  4.25082e+00  8.50572e-02  6.20476e+01  2.47320e+02  1.47878e+05 -4.29530e+05  1.20985e+03  0.00000e+00 -2.80442e+05  1.11326e+05 -1.69116e+05  8.50717e-02  1.00000e+00 -6.15511e+01  0.00000e+00  8.56275e-01 
 6.35626e-03  4.42546e-03  0.00000e+00  3.47944e+00  1.43533e-04  3.59767e+02  3.60048e+02  4.21245e+00  4.23755e+00  9.70041e-02  6.34628e+01  2.42833e+02  2.23078e+05 -4.94271e+05  1.18511e+03  0.00000e+00 -2.70008e+05  9.79563e+04 -1.72051e+05  9.70181e-02  1.00000e+00 -6.29048e+01  0.00000e+00  9.76520e-01 
 6.52453e-03  4.66392e-03 -8.96437e-21  3.47944e+00  1.45225e-04  3.59797e+02  3.60048e+02  4.19693e+00  4.22200e+00  1.10318e-01  6.46690e+01  2.40006e+02  3.15837e+05 -5.74741e+05  1.16788e+03  0.00000e+00 -2.57737e+05  8.66670e+04 -1.71070e+05  1.10332e-01  1.00000e+00 -6.40380e+01  0.00000e+00  1.12086e+00 
 6.69707e-03  4.90238e-03  1.72236e-20  3.47944e+00  1.46188e-04  3.59826e+02  3.60048e+02  4.17900e+00  4.20376e+00  1.24950e-01  6.53963e+01  2.38423e+02  4.27345e+05 -6.72697e+05  1.15625e+03  0.00000e+00 -2.44196e+05  7.67764e+04 -1.67420e+05  1.24966e-01  1.00000e+00 -6.46808e+01  0.00000e+00  1.29451e+00 
 6.87356e-03  5.14086e-03  8.28595e-21  3.47944e+00  1.46616e-04  3.59855e+02  3.60048e+02  4.15831e+00  4.18258e+00  1.40862e-01  6.54158e+01  2.37728e+02  5.58575e+05 -7.89871e+05  1.14839e+03  0.00000e+00 -2.30148e+05  6.78257e+04 -1.62322e+05  1.40878e-01  1.00000e+00 -6.46043e+01  0.00000e+00  1.50289e+00 
 7.05370e-03  5.37934e-03 -1.59677e-20  3.47944e+00  1.46680e-04  3.59882e+02  3.60048e+02  4.13445e+00  4.15813e+00  1.57905e-01  6.45144e+01  2.37625e+02  7.10327e+05 -9.27301e+05  1.14266e+03  0.00000e+00 -2.15831e+05  5.95365e+04 -1.56295e+05  1.57922e-01  1.00000e+00 -6.35966e+01  0.00000e+00  1.75234e+00 
 7.23722e-03  5.61783e-03  0.00000e+00  3.47944e+00  1.46528e-04  3.59908e+02  3.60048e+02  4.10701e+00  4.13000e+00  1.75910e-01  6.25608e+01  2.37873e+02  8.82563e+05 -1.08551e+06  1.13771e+03  0.00000e+00 -2.01809e+05  5.17587e+04 -1.50050e+05  1.75927e-01  1.00000e+00 -6.15277e+01  0.00000e+00  2.04965e+00 
 7.42387e-03  5.85632e-03  0.00000e+00  3.47944e+00  1.46272e-04  3.59931e+02  3.60048e+02  4.07555e+00  4.09779e+00  1.94623e-01  5.95061e+01  2.38289e+02  1.07462e+06 -1.26412e+06  1.13242e+03  0.00000e+00 -1.88374e+05  4.44448e+04 -1.43930e+05  1.94641e-01  1.00000e+00 -5.83511e+01  0.00000e+00  2.40254e+00 
 7.61342e-03  6.09482e-03  0.00000e+00  3.47944e+00  1.45994e-04  3.59953e+02  3.60048e+02  4.03965e+00  4.06112e+00  2.13773e-01  5.54008e+01  2.38743e+02  1.28479e+06 -1.46201e+06  1.12605e+03  0.00000e+00 -1.76091e+05  3.76008e+04 -1.38490e+05  2.13791e-01  1.00000e+00 -5.41196e+01  0.00000e+00  2.81910e+00 
 7.80566e-03  6.33332e-03  0.00000e+00  3.47944e+00  1.45736e-04  3.59972e+02  3.60048e+02  3.99893e+00  4.01959e+00  2.33082e-01  5.03941e+01  2.39167e+02  1.51121e+06 -1.67778e+06  1.11809e+03  0.00000e+00 -1.65451e+05  3.12695e+04 -1.34182e+05  2.33100e-01  1.00000e+00 -4.89848e+01  0.00000e+00  3.30900e+00 
 8.00039e-03  6.57182e-03  0.00000e+00  3.47944e+00  1.45500e-04  3.59989e+02  3.60049e+02  3.95300e+00  3.97284e+00  2.52259e-01  4.46945e+01  2.39554e+02  1.75188e+06 -1.90991e+06  1.10842e+03  0.00000e+00 -1.56923e+05  2.54966e+04 -1.31427e+05  2.52278e-01  1.00000e+00 -4.31576e+01  0.00000e+00  3.88304e+00 
 8.19744e-03  6.81033e-03  1.31016e-20  3.47944e+00  1.45252e-04  3.60004e+02  3.60049e+02  3.90154e+00  3.92056e+00  2.71110e-01  3.85569e+01  2.39964e+02  2.00602e+06 -2.15843e+06  1.09714e+03  0.00000e+00 -1.51313e+05  2.03152e+04 -1.30998e+05  2.71130e-01  1.00000e+00 -3.68937e+01  0.00000e+00  4.55578e+00 
 8.39664e-03  7.04884e-03  0.00000e+00  3.47944e+00  1.44910e-04  3.60017e+02  3.60049e+02  3.84411e+00  3.86231e+00  2.89395e-01  3.22144e+01  2.40532e+02  2.27478e+06 -2.42469e+06  1.08475e+03  0.00000e+00 -1.48828e+05  1.57327e+04 -1.33095e+05  2.89417e-01  1.00000e+00 -3.04265e+01  0.00000e+00  5.34653e+00 
 8.59784e-03  7.28736e-03  0.00000e+00  3.47944e+00  1.44364e-04  3.60029e+02  3.60049e+02  3.78034e+00  3.79769e+00  3.07077e-01  2.58670e+01  2.41442e+02  2.56223e+06 -2.71428e+06  1.07184e+03  0.00000e+00 -1.50977e+05  1.17170e+04 -1.39260e+05  3.07101e-01  1.00000e+00 -2.39541e+01  0.00000e+00  6.28406e+00 
 8.80092e-03  7.52587e-03  0.00000e+00  3.47944e+00  1.43448e-04  3.60038e+02  3.60049e+02  3.70934e+00  3.72581e+00  3.24021e-01  1.96241e+01  2.42985e+02  2.87771e+06 -3.03693e+06  1.05927e+03  0.00000e+00 -1.58161e+05  8.20291e+03 -1.49958e+05  3.24046e-01  1.00000e+00 -1.75829e+01  0.00000e+00  7.41263e+00 
 9.00573e-03  7.76439e-03 -1.17014e-20  3.47944e+00  1.41984e-04  3.60047e+02  3.60049e+02  3.63008e+00  3.64562e+00  3.40343e-01  1.34862e+01  2.45492e+02  3.23587e+06 -3.41037e+06  1.04805e+03  0.00000e+00 -1.73446e+05  5.07415e+03 -1.68371e+05  3.40374e-01  1.00000e+00 -1.13078e+01  0.00000e+00  8.80082e+00 
 9.21216e-03  8.00291e-03  0.00000e+00  3.47944e+00  1.39712e-04  3.60054e+02  3.60050e+02  3.54113e+00  3.55568e+00  3.56029e-01  7.28583e+00  2.49487e+02  3.66449e+06 -3.86413e+06  1.03917e+03  0.00000e+00 -1.98602e+05  2.15919e+03 -1.96443e+05  3.56061e-01  1.00000e+00 -4.95292e+00  0.00000e+00  1.05669e+01 
 9.42012e-03  8.24144e-03  0.00000e+00  3.47944e+00  1.36381e-04  3.60061e+02  3.60050e+02  3.43812e+00  3.45153e+00  3.71372e-01  6.27142e-01  2.55582e+02  4.20425e+06 -4.44692e+06  1.03378e+03  0.00000e+00 -2.41635e+05 -1.79904e+03 -2.43434e+05  3.71423e-01  1.00000e+00  4.20220e+00  0.00000e+00  1.29029e+01 
 9.62949e-03  8.47996e-03  0.00000e+00  3.47944e+00  1.31558e-04  3.60068e+02  3.60050e+02  3.32035e+00  3.33243e+00  3.86418e-01 -1.77546e+01  2.64952e+02  4.94563e+06 -5.25340e+06  1.03295e+03  0.00000e+00 -3.06735e+05 -9.79513e+03 -3.16530e+05  3.86473e-01  1.00000e+00  2.29642e+01  0.00000e+00  1.62167e+01 
 9.84019e-03  8.71849e-03  0.00000e+00  3.47944e+00  1.24783e-04  3.60078e+02  3.60051e+02  3.16948e+00  3.17994e+00  4.01320e-01 -5.00443e+01  2.79340e+02  6.03041e+06 -6.45011e+06  1.04067e+03  0.00000e+00 -4.18662e+05 -2.41385e+04 -4.42800e+05  4.01379e-01  1.00000e+00  5.57455e+01  0.00000e+00  2.11869e+01 
 1.00521e-02  8.95702e-03  0.00000e+00  3.47944e+00  1.15225e-04  3.60099e+02  3.60051e+02  2.99238e+00  3.00151e+00  4.16060e-01 -1.29620e+02  3.02515e+02  7.90224e+06 -8.47440e+06  1.05688e+03  0.00000e+00 -5.71099e+05 -6.15272e+04 -6.32626e+05  4.16121e-01  1.00000e+00  1.36017e+02  0.00000e+00  3.00016e+01 
 1.02653e-02  9.19555e-03  0.00000e+00  3.47944e+00  1.02518e-04  3.60161e+02  3.60052e+02  2.72584e+00  2.73349e+00  4.31369e-01 -4.15819e+02  3.40015e+02  1.17364e+07 -1.23858e+07  1.07170e+03  0.00000e+00 -6.48337e+05 -2.07543e+05 -8.55880e+05  4.31464e-01  1.00000e+00  4.23231e+02  0.00000e+00  4.95981e+01 
 1.04795e-02  9.43408e-03  0.00000e+00  3.47944e+00  8.74575e-05  3.60466e+02  3.60053e+02  2.29419e+00  2.29834e+00  4.51615e-01 -5.46349e+03  3.98574e+02  2.25909e+07 -2.15653e+07  1.09972e+03  3.74286e+06  4.76957e+06 -4.91448e+06 -1.44917e+05  4.51586e-01  1.00000e+00  5.47236e+03  3.24463e+03  1.23916e+02 
