# Code_Saturne plot output (1D profile)
#
# Iteration output: 3803
# Time output:      2.30001e+01
#
#COLUMN_TITLES: Distance | X | Y | Z | diameter_Field2 | temp_Field1 | temp_Field2 | Velocity_Field1[Z] | Velocity_Field2[Z] | vol_f_Field2 | mass_trans_Field1 | Xd_Field2 | BK | COAL | COMP | NUCL | W1 | MT | SMBR | ALPBB | CONDNUM | GAMA | GAMANUC | epsilon_Field1
 4.56474e-03  1.39645e-04  0.00000e+00  3.47944e+00  2.09220e-05  3.58707e+02  3.60049e+02  4.20993e+00  4.21122e+00  1.29614e-03  4.95717e+01  1.66593e+03 1.69769e-108 -1.42745e+05  7.79645e+03  0.00000e+00 -1.34948e+05  2.26562e+07  2.25213e+07  1.29547e-03  1.00000e+00 -4.96919e+01  0.00000e+00  2.49142e-01 
 4.57812e-03  3.76525e-04  4.25872e-21  3.47944e+00  2.84033e-05  3.58712e+02  3.60049e+02  4.20967e+00  4.21173e+00  1.85916e-03  4.94776e+01  1.22713e+03  5.02175e-61 -1.22667e+05  5.66152e+03  0.00000e+00 -1.17006e+05  1.16104e+07  1.14934e+07  1.85847e-03  1.00000e+00 -4.95981e+01  0.00000e+00  2.51510e-01 
 4.60371e-03  6.13858e-04  0.00000e+00  3.47944e+00  3.59575e-05  3.58721e+02  3.60049e+02  4.20871e+00  4.21173e+00  2.66706e-03  5.17791e+01  9.69330e+02  9.17544e-38 -1.18827e+05  4.50473e+03  0.00000e+00 -1.14323e+05  6.68995e+06  6.57563e+06  2.66624e-03  1.00000e+00 -5.19060e+01  0.00000e+00  2.56154e-01 
 4.64138e-03  8.51483e-04  0.00000e+00  3.47944e+00  4.34819e-05  3.58736e+02  3.60049e+02  4.20723e+00  4.21140e+00  3.61225e-03  5.29523e+01  8.01589e+02  1.22407e-24 -1.17668e+05  3.74774e+03  0.00000e+00 -1.13920e+05  4.17712e+06  4.06320e+06  3.61127e-03  1.00000e+00 -5.30835e+01  0.00000e+00  2.63128e-01 
 4.69084e-03  1.08931e-03  0.00000e+00  3.47944e+00  5.09805e-05  3.58755e+02  3.60049e+02  4.20517e+00  4.21059e+00  4.62496e-03  5.32091e+01  6.83686e+02  1.93393e-16 -1.16311e+05  3.20808e+03  0.00000e+00 -1.13103e+05  2.79620e+06  2.68309e+06  4.62368e-03  1.00000e+00 -5.33428e+01  0.00000e+00  2.72537e-01 
 4.75174e-03  1.32727e-03  1.05001e-20  3.47944e+00  5.83968e-05  3.58778e+02  3.60049e+02  4.20251e+00  4.20946e+00  5.75302e-03  5.26170e+01  5.96859e+02  5.53411e-11 -1.16442e+05  2.80373e+03  0.00000e+00 -1.13638e+05  1.94065e+06  1.82701e+06  5.75149e-03  1.00000e+00 -5.27516e+01  0.00000e+00  2.84530e-01 
 4.82366e-03  1.56534e-03  0.00000e+00  3.47944e+00  6.56061e-05  3.58806e+02  3.60049e+02  4.19925e+00  4.20775e+00  7.12236e-03  5.32804e+01  5.31271e+02  3.33549e-07 -1.20168e+05  2.49558e+03  0.00000e+00 -1.17673e+05  1.41291e+06  1.29523e+06  7.12070e-03  1.00000e+00 -5.34199e+01  0.00000e+00  2.99355e-01 
 4.90611e-03  1.80349e-03  8.81027e-21  3.47944e+00  7.25934e-05  3.58839e+02  3.60049e+02  4.19536e+00  4.20538e+00  8.81050e-03  5.51590e+01  4.80135e+02  1.78977e-04 -1.27418e+05  2.25635e+03  0.00000e+00 -1.25161e+05  1.06869e+06  9.43528e+05  8.80862e-03  1.00000e+00 -5.53071e+01  0.00000e+00  3.17257e-01 
 4.99859e-03  2.04170e-03  0.00000e+00  3.47944e+00  7.94791e-05  3.58876e+02  3.60049e+02  4.19082e+00  4.20235e+00  1.08692e-02  5.77169e+01  4.38539e+02  2.06698e-02 -1.37464e+05  2.06129e+03  0.00000e+00 -1.35402e+05  8.27975e+05  6.92572e+05  1.08670e-02  1.00000e+00 -5.78768e+01  0.00000e+00  3.38636e-01 
 5.10055e-03  2.27996e-03  7.58893e-21  3.47944e+00  8.63437e-05  3.58918e+02  3.60049e+02  4.18559e+00  4.19863e+00  1.33630e-02  6.07837e+01  4.03674e+02  8.29173e-01 -1.50053e+05  1.89766e+03  0.00000e+00 -1.48154e+05  6.52908e+05  5.04754e+05  1.33605e-02  1.00000e+00 -6.09582e+01  0.00000e+00  3.63883e-01 
 5.21143e-03  2.51826e-03  7.09702e-21  3.47944e+00  9.32109e-05  3.58964e+02  3.60049e+02  4.17965e+00  4.19418e+00  1.63663e-02  6.42373e+01  3.73933e+02  1.53445e+01 -1.65249e+05  1.75766e+03  0.00000e+00 -1.63476e+05  5.21940e+05  3.58464e+05  1.63632e-02  1.00000e+00 -6.44294e+01  0.00000e+00  3.93632e-01 
 5.33068e-03  2.75659e-03  1.33300e-20  3.47944e+00  1.00047e-04  3.59013e+02  3.60049e+02  4.17292e+00  4.18890e+00  1.99566e-02  6.80371e+01  3.48383e+02  1.56562e+02 -1.83319e+05  1.63711e+03  0.00000e+00 -1.81526e+05  4.22446e+05  2.40920e+05  1.99526e-02  1.00000e+00 -6.82501e+01  0.00000e+00  4.28612e-01 
 5.45775e-03  2.99495e-03  1.25651e-20  3.47944e+00  1.06763e-04  3.59066e+02  3.60049e+02  4.16537e+00  4.18271e+00  2.42338e-02  7.21853e+01  3.26467e+02  9.97155e+02 -2.04937e+05  1.53333e+03  0.00000e+00 -2.02407e+05  3.45920e+05  1.43514e+05  2.42300e-02  1.00000e+00 -7.24233e+01  0.00000e+00  4.69738e-01 
 5.59212e-03  3.23333e-03  0.00000e+00  3.47944e+00  1.13209e-04  3.59123e+02  3.60049e+02  4.15691e+00  4.17550e+00  2.92926e-02  7.67238e+01  3.07879e+02  4.34780e+03 -2.30981e+05  1.44496e+03  0.00000e+00 -2.25189e+05  2.86906e+05  6.17178e+04  2.92887e-02  1.00000e+00 -7.69920e+01  0.00000e+00  5.18222e-01 
 5.73326e-03  3.47172e-03  0.00000e+00  3.47944e+00  1.19179e-04  3.59182e+02  3.60049e+02  4.14744e+00  4.16713e+00  3.52468e-02  8.17149e+01  2.92456e+02  1.39257e+04 -2.62873e+05  1.37126e+03  0.00000e+00 -2.47576e+05  2.41265e+05 -6.31091e+03  3.52455e-02  1.00000e+00 -8.20196e+01  0.00000e+00  5.75207e-01 
 5.88069e-03  3.71014e-03 -5.35987e-21  3.47944e+00  1.24448e-04  3.59243e+02  3.60049e+02  4.13686e+00  4.15744e+00  4.21835e-02  8.71928e+01  2.80075e+02  3.48903e+04 -3.02213e+05  1.31173e+03  0.00000e+00 -2.66011e+05  2.06082e+05 -5.99291e+04  4.21766e-02  1.00000e+00 -8.75420e+01  0.00000e+00  6.42328e-01 
 6.03395e-03  3.94857e-03  5.10973e-21  3.47944e+00  1.28830e-04  3.59305e+02  3.60049e+02  4.12504e+00  4.14628e+00  5.02604e-02  9.33266e+01  2.70549e+02  7.22214e+04 -3.51762e+05  1.26503e+03  0.00000e+00 -2.78275e+05  1.78886e+05 -9.93891e+04  5.02544e-02  1.00000e+00 -9.37311e+01  0.00000e+00  7.21651e-01 
 6.19261e-03  4.18701e-03  0.00000e+00  3.47944e+00  1.32236e-04  3.59369e+02  3.60049e+02  4.11186e+00  4.13353e+00  5.95611e-02  9.99938e+01  2.63580e+02  1.29303e+05 -4.13893e+05  1.23009e+03  0.00000e+00 -2.83360e+05  1.57630e+05 -1.25730e+05  5.95545e-02  1.00000e+00 -1.00466e+02  0.00000e+00  8.15317e-01 
 6.35626e-03  4.42546e-03  0.00000e+00  3.47944e+00  1.34699e-04  3.59432e+02  3.60049e+02  4.09713e+00  4.11904e+00  7.01770e-02  1.05947e+02  2.58761e+02  2.08064e+05 -4.91357e+05  1.20487e+03  0.00000e+00 -2.82088e+05  1.39221e+05 -1.42867e+05  7.01700e-02  1.00000e+00 -1.06497e+02  0.00000e+00  9.25887e-01 
 6.52453e-03  4.66392e-03 -8.96437e-21  3.47944e+00  1.36322e-04  3.59495e+02  3.60049e+02  4.08066e+00  4.10263e+00  8.21691e-02  1.11158e+02  2.55680e+02  3.09937e+05 -5.87041e+05  1.18737e+03  0.00000e+00 -2.75916e+05  1.23336e+05 -1.52580e+05  8.21610e-02  1.00000e+00 -1.11800e+02  0.00000e+00  1.05672e+00 
 6.69707e-03  4.90238e-03  1.72236e-20  3.47944e+00  1.37245e-04  3.59556e+02  3.60049e+02  4.06220e+00  4.08400e+00  9.55721e-02  1.15581e+02  2.53961e+02  4.36273e+05 -7.03962e+05  1.17563e+03  0.00000e+00 -2.66513e+05  1.09592e+05 -1.56921e+05  9.55632e-02  1.00000e+00 -1.16328e+02  0.00000e+00  1.21161e+00 
 6.87356e-03  5.14086e-03  8.28595e-21  3.47944e+00  1.37629e-04  3.59615e+02  3.60049e+02  4.04148e+00  4.06297e+00  1.10406e-01  1.18791e+02  2.53253e+02  5.88826e+05 -8.45205e+05  1.16782e+03  0.00000e+00 -2.55212e+05  9.73111e+04 -1.57901e+05  1.10397e-01  1.00000e+00 -1.19659e+02  0.00000e+00  1.39502e+00 
 7.05370e-03  5.37934e-03 -1.59677e-20  3.47944e+00  1.37623e-04  3.59672e+02  3.60049e+02  4.01815e+00  4.03919e+00  1.26614e-01  1.20349e+02  2.53264e+02  7.69771e+05 -1.01352e+06  1.16237e+03  0.00000e+00 -2.42591e+05  8.60589e+04 -1.56532e+05  1.26605e-01  1.00000e+00 -1.21355e+02  0.00000e+00  1.61272e+00 
 7.23722e-03  5.61783e-03  0.00000e+00  3.47944e+00  1.37359e-04  3.59725e+02  3.60049e+02  3.99183e+00  4.01233e+00  1.44033e-01  1.19832e+02  2.53751e+02  9.79688e+05 -1.21044e+06  1.15831e+03  0.00000e+00 -2.29592e+05  7.55663e+04 -1.54026e+05  1.44027e-01  1.00000e+00 -1.20990e+02  0.00000e+00  1.86964e+00 
 7.42387e-03  5.85632e-03  0.00000e+00  3.47944e+00  1.36938e-04  3.59774e+02  3.60049e+02  3.96211e+00  3.98201e+00  1.62484e-01  1.17020e+02  2.54532e+02  1.22023e+06 -1.43749e+06  1.15416e+03  0.00000e+00 -2.16109e+05  6.57206e+04 -1.50388e+05  1.62479e-01  1.00000e+00 -1.18342e+02  0.00000e+00  2.17373e+00 
 7.61342e-03  6.09482e-03  0.00000e+00  3.47944e+00  1.36445e-04  3.59819e+02  3.60049e+02  3.92852e+00  3.94778e+00  1.81713e-01  1.11851e+02  2.55452e+02  1.49051e+06 -1.69462e+06  1.14963e+03  0.00000e+00 -2.02956e+05  5.64884e+04 -1.46468e+05  1.81709e-01  1.00000e+00 -1.13348e+02  0.00000e+00  2.53192e+00 
 7.80566e-03  6.33332e-03  0.00000e+00  3.47944e+00  1.35931e-04  3.59859e+02  3.60049e+02  3.89061e+00  3.90919e+00  2.01528e-01  1.04483e+02  2.56418e+02  1.79040e+06 -1.98240e+06  1.14362e+03  0.00000e+00 -1.90858e+05  4.78850e+04 -1.42973e+05  2.01526e-01  1.00000e+00 -1.06162e+02  0.00000e+00  2.95426e+00 
 8.00039e-03  6.57182e-03  0.00000e+00  3.47944e+00  1.35423e-04  3.59895e+02  3.60049e+02  3.84789e+00  3.86577e+00  2.21525e-01  9.51873e+01  2.57381e+02  2.11838e+06 -2.29873e+06  1.13624e+03  0.00000e+00 -1.79213e+05  3.99736e+04 -1.39240e+05  2.21524e-01  1.00000e+00 -9.70524e+01  0.00000e+00  3.45104e+00 
 8.19744e-03  6.81033e-03  1.31016e-20  3.47944e+00  1.34920e-04  3.59927e+02  3.60050e+02  3.79994e+00  3.81711e+00  2.41618e-01  8.44453e+01  2.58341e+02  2.47282e+06 -2.64490e+06  1.12717e+03  0.00000e+00 -1.70950e+05  3.27860e+04 -1.38164e+05  2.41616e-01  1.00000e+00 -8.64989e+01  0.00000e+00  4.03540e+00 
 8.39664e-03  7.04884e-03  0.00000e+00  3.47944e+00  1.34377e-04  3.59955e+02  3.60050e+02  3.74616e+00  3.76257e+00  2.61404e-01  7.27155e+01  2.59386e+02  2.85506e+06 -3.02069e+06  1.11656e+03  0.00000e+00 -1.64512e+05  2.63677e+04 -1.38144e+05  2.61396e-01  1.00000e+00 -7.49573e+01  0.00000e+00  4.72575e+00 
 8.59784e-03  7.28736e-03  0.00000e+00  3.47944e+00  1.33725e-04  3.59979e+02  3.60050e+02  3.68627e+00  3.70192e+00  2.80945e-01  6.05330e+01  2.60652e+02  3.26877e+06 -3.43380e+06  1.10483e+03  0.00000e+00 -1.63932e+05  2.07093e+04 -1.43223e+05  2.80935e-01  1.00000e+00 -6.29648e+01  0.00000e+00  5.54916e+00 
 8.80092e-03  7.52587e-03  0.00000e+00  3.47944e+00  1.32828e-04  3.59999e+02  3.60050e+02  3.61900e+00  3.63385e+00  2.99829e-01  4.82249e+01  2.62413e+02  3.72283e+06 -3.89172e+06  1.09265e+03  0.00000e+00 -1.67793e+05  1.57770e+04 -1.52017e+05  2.99818e-01  1.00000e+00 -5.08492e+01  0.00000e+00  6.54144e+00 
 9.00573e-03  7.76439e-03 -1.17014e-20  3.47944e+00  1.31536e-04  3.60017e+02  3.60050e+02  3.54420e+00  3.55819e+00  3.18306e-01  3.60658e+01  2.64992e+02  4.23510e+06 -4.41850e+06  1.08103e+03  0.00000e+00 -1.82321e+05  1.14784e+04 -1.70843e+05  3.18297e-01  1.00000e+00 -3.88924e+01  0.00000e+00  7.76560e+00 
 9.21216e-03  8.00291e-03  0.00000e+00  3.47944e+00  1.29592e-04  3.60032e+02  3.60051e+02  3.45889e+00  3.47196e+00  3.36117e-01  2.40029e+01  2.68968e+02  4.83984e+06 -5.04888e+06  1.07076e+03  0.00000e+00 -2.07975e+05  7.67397e+03 -2.00301e+05  3.36108e-01  1.00000e+00 -2.70507e+01  0.00000e+00  9.32128e+00 
 9.42012e-03  8.24144e-03  0.00000e+00  3.47944e+00  1.26729e-04  3.60045e+02  3.60051e+02  3.36218e+00  3.37425e+00  3.53652e-01  1.16287e+01  2.75046e+02  5.59595e+06 -5.85229e+06  1.06295e+03  0.00000e+00 -2.55280e+05  4.11744e+03 -2.51163e+05  3.53651e-01  1.00000e+00 -1.49338e+01  0.00000e+00  1.13911e+01 
 9.62949e-03  8.47996e-03  0.00000e+00  3.47944e+00  1.22486e-04  3.60058e+02  3.60051e+02  3.24633e+00  3.25697e+00  3.70503e-01 -2.27551e+00  2.84575e+02  6.60930e+06 -6.94250e+06  1.06227e+03  0.00000e+00 -3.32131e+05  3.66842e+02 -3.31764e+05  3.70494e-01  1.00000e+00 -1.34722e+00  0.00000e+00  1.42771e+01 
 9.84019e-03  8.71849e-03  0.00000e+00  3.47944e+00  1.16396e-04  3.60071e+02  3.60052e+02  3.10699e+00  3.11637e+00  3.87455e-01 -4.27407e+01  2.99468e+02  8.09392e+06 -8.56653e+06  1.06844e+03  0.00000e+00 -4.71537e+05 -9.65473e+03 -4.81192e+05  3.87375e-01  1.00000e+00  3.52295e+01  0.00000e+00  1.86562e+01 
 1.00521e-02  8.95702e-03  0.00000e+00  3.47944e+00  1.07394e-04  3.60092e+02  3.60052e+02  2.93390e+00  2.94205e+00  4.04204e-01 -1.21312e+02  3.24572e+02  1.06755e+07 -1.13648e+07  1.08651e+03  0.00000e+00 -6.88197e+05 -3.21268e+04 -7.20324e+05  4.04089e-01  1.00000e+00  1.12842e+02  0.00000e+00  2.64368e+01 
 1.02653e-02  9.19555e-03  0.00000e+00  3.47944e+00  9.48454e-05  3.60147e+02  3.60053e+02  2.68199e+00  2.68841e+00  4.22082e-01 -3.91803e+02  3.67520e+02  1.60810e+07 -1.70256e+07  1.11376e+03  0.00000e+00 -9.43567e+05 -1.17897e+05 -1.06146e+06  4.21955e-01  1.00000e+00  3.81879e+02  0.00000e+00  4.37622e+01 
 1.04795e-02  9.43408e-03  0.00000e+00  3.47944e+00  7.91071e-05  3.60421e+02  3.60053e+02  2.26295e+00  2.26613e+00  4.45139e-01 -5.41737e+03  4.40644e+02  3.22551e+07 -3.15898e+07  1.16946e+03  3.18260e+06  3.84900e+06 -4.00968e+06 -1.60679e+05  4.45022e-01  1.00000e+00  5.40525e+03  3.20060e+03  1.09186e+02 
