# Code_Saturne plot output (1D profile)
#
# Iteration output: 3846
# Time output:      2.30002e+01
#
#COLUMN_TITLES: Distance | X | Y | Z | diameter_Field2 | temp_Field1 | temp_Field2 | Velocity_Field1[Z] | Velocity_Field2[Z] | vol_f_Field2 | mass_trans_Field1 | Xd_Field2 | BK | COAL | COMP | NUCL | W1 | MT | SMBR | ALPBB | CONDNUM | GAMA | GAMANUC | epsilon_Field1
 4.56474e-03  1.39645e-04  0.00000e+00  3.47944e+00  3.04983e-05  3.59316e+02  3.60051e+02  4.38365e+00  4.38696e+00  2.41018e-02  2.99158e+02  1.14273e+03  9.21526e-35 -2.16405e+06  6.24922e+03  0.00000e+00 -2.15780e+06  7.40275e+06  5.24494e+06  2.40834e-02  1.00000e+00 -2.99845e+02  0.00000e+00  4.34654e-01 
 4.57812e-03  3.76525e-04  4.25872e-21  3.47944e+00  5.32351e-05  3.59314e+02  3.60051e+02  4.38361e+00  4.39121e+00  2.54238e-02  1.42822e+02  6.54669e+02  5.65718e-09 -8.88939e+05  3.56615e+03  0.00000e+00 -8.85372e+05  1.91841e+06  1.03304e+06  2.54078e-02  1.00000e+00 -1.43153e+02  0.00000e+00  4.39061e-01 
 4.60371e-03  6.13858e-04  0.00000e+00  3.47944e+00  7.21505e-05  3.59315e+02  3.60051e+02  4.38243e+00  4.39420e+00  2.67996e-02  9.87942e+01  4.83037e+02  1.57346e-02 -5.61090e+05  2.63023e+03  0.00000e+00 -5.58460e+05  9.28652e+05  3.70193e+05  2.67843e-02  1.00000e+00 -9.90242e+01  0.00000e+00  4.47612e-01 
 4.64138e-03  8.51483e-04  0.00000e+00  3.47944e+00  8.80409e-05  3.59318e+02  3.60051e+02  4.38053e+00  4.39580e+00  2.86157e-02  8.04565e+01  3.95854e+02  7.29305e+00 -4.29957e+05  2.15540e+03  0.00000e+00 -4.27794e+05  5.80379e+05  1.52585e+05  2.86006e-02  1.00000e+00 -8.06449e+01  0.00000e+00  4.60515e-01 
 4.69084e-03  1.08931e-03  0.00000e+00  3.47944e+00  1.02229e-04  3.59324e+02  3.60051e+02  4.37786e+00  4.39625e+00  3.08654e-02  7.07878e+01  3.40914e+02  2.04999e+02 -3.63148e+05  1.85622e+03  0.00000e+00 -3.61087e+05  4.07686e+05  4.65988e+04  3.08502e-02  1.00000e+00 -7.09550e+01  0.00000e+00  4.78014e-01 
 4.75174e-03  1.32727e-03  1.05001e-20  3.47944e+00  1.15329e-04  3.59333e+02  3.60051e+02  4.37443e+00  4.39566e+00  3.35825e-02  6.52058e+01  3.02191e+02  1.64645e+03 -3.25848e+05  1.64505e+03  0.00000e+00 -3.22556e+05  3.05931e+05 -1.66249e+04  3.35676e-02  1.00000e+00 -6.53617e+01  0.00000e+00  5.00486e-01 
 4.82366e-03  1.56534e-03  0.00000e+00  3.47944e+00  1.27544e-04  3.59345e+02  3.60051e+02  4.37022e+00  4.39404e+00  3.67982e-02  6.19965e+01  2.73250e+02  6.69620e+03 -3.05360e+05  1.48668e+03  0.00000e+00 -2.97177e+05  2.40007e+05 -5.71703e+04  3.67832e-02  1.00000e+00 -6.21473e+01  0.00000e+00  5.28399e-01 
 4.90611e-03  1.80349e-03  8.81027e-21  3.47944e+00  1.38859e-04  3.59359e+02  3.60051e+02  4.36522e+00  4.39137e+00  4.05748e-02  6.04281e+01  2.50984e+02  1.79372e+04 -2.96567e+05  1.36559e+03  0.00000e+00 -2.77264e+05  1.94898e+05 -8.23660e+04  4.05573e-02  1.00000e+00 -6.05782e+01  0.00000e+00  5.62387e-01 
 4.99859e-03  2.04170e-03  0.00000e+00  3.47944e+00  1.49253e-04  3.59377e+02  3.60051e+02  4.35936e+00  4.38760e+00  4.49434e-02  6.00414e+01  2.33506e+02  3.67787e+04 -2.96424e+05  1.26997e+03  0.00000e+00 -2.58375e+05  1.62664e+05 -9.57112e+04  4.49235e-02  1.00000e+00 -6.01942e+01  0.00000e+00  6.03198e-01 
 5.10055e-03  2.27996e-03  7.58893e-21  3.47944e+00  1.58737e-04  3.59396e+02  3.60051e+02  4.35259e+00  4.38267e+00  4.99731e-02  6.05698e+01  2.19554e+02  6.30942e+04 -3.03531e+05  1.19324e+03  0.00000e+00 -2.39244e+05  1.38770e+05 -1.00474e+05  4.99513e-02  1.00000e+00 -6.07284e+01  0.00000e+00  6.51767e-01 
 5.21143e-03  2.51826e-03  7.09702e-21  3.47944e+00  1.67422e-04  3.59418e+02  3.60051e+02  4.34487e+00  4.37656e+00  5.57103e-02  6.17929e+01  2.08165e+02  9.59265e+04 -3.16761e+05  1.13036e+03  0.00000e+00 -2.19705e+05  1.20414e+05 -9.92909e+04  5.56864e-02  1.00000e+00 -6.19603e+01  0.00000e+00  7.09178e-01 
 5.33068e-03  2.75659e-03  1.33300e-20  3.47944e+00  1.75508e-04  3.59442e+02  3.60051e+02  4.33607e+00  4.36919e+00  6.22296e-02  6.34991e+01  1.98574e+02  1.34173e+05 -3.35356e+05  1.07702e+03  0.00000e+00 -2.00106e+05  1.05681e+05 -9.44248e+04  6.22032e-02  1.00000e+00 -6.36776e+01  0.00000e+00  7.76762e-01 
 5.45775e-03  2.99495e-03  1.25651e-20  3.47944e+00  1.83250e-04  3.59467e+02  3.60051e+02  4.32611e+00  4.36056e+00  6.95837e-02  6.48929e+01  1.90185e+02  1.76767e+05 -3.58493e+05  1.03010e+03  0.00000e+00 -1.80696e+05  9.25116e+04 -8.81846e+04  6.95576e-02  1.00000e+00 -6.50832e+01  0.00000e+00  8.56000e-01 
 5.59212e-03  3.23333e-03  0.00000e+00  3.47944e+00  1.90902e-04  3.59494e+02  3.60051e+02  4.31483e+00  4.35057e+00  7.77874e-02  6.61848e+01  1.82562e+02  2.22555e+05 -3.85178e+05  9.87211e+02  0.00000e+00 -1.61635e+05  8.10285e+04 -8.06064e+04  7.77596e-02  1.00000e+00 -6.63880e+01  0.00000e+00  9.48555e-01 
 5.73326e-03  3.47172e-03  0.00000e+00  3.47944e+00  1.98717e-04  3.59522e+02  3.60051e+02  4.30210e+00  4.33913e+00  8.68845e-02  6.72394e+01  1.75382e+02  2.70287e+05 -4.14582e+05  9.46697e+02  0.00000e+00 -1.43348e+05  7.08120e+04 -7.25364e+04  8.68542e-02  1.00000e+00 -6.74566e+01  0.00000e+00  1.05657e+00 
 5.88069e-03  3.71014e-03 -5.35987e-21  3.47944e+00  2.06938e-04  3.59551e+02  3.60051e+02  4.28771e+00  4.32601e+00  9.69007e-02  6.78544e+01  1.68415e+02  3.18422e+05 -4.45687e+05  9.07138e+02  0.00000e+00 -1.26358e+05  6.15391e+04 -6.48189e+04  9.68674e-02  1.00000e+00 -6.80861e+01  0.00000e+00  1.18226e+00 
 6.03395e-03  3.94857e-03  5.10973e-21  3.47944e+00  2.15789e-04  3.59581e+02  3.60051e+02  4.27145e+00  4.31110e+00  1.07822e-01  6.78830e+01  1.61507e+02  3.65264e+05 -4.77207e+05  8.67830e+02  0.00000e+00 -1.11075e+05  5.30703e+04 -5.80047e+04  1.07786e-01  1.00000e+00 -6.81289e+01  0.00000e+00  1.32812e+00 
 6.19261e-03  4.18701e-03  0.00000e+00  3.47944e+00  2.25453e-04  3.59611e+02  3.60051e+02  4.25309e+00  4.29407e+00  1.19607e-01  6.71824e+01  1.54585e+02  4.09147e+05 -5.07853e+05  8.28029e+02  0.00000e+00 -9.78780e+04  4.53278e+04 -5.25502e+04  1.19569e-01  1.00000e+00 -6.74419e+01  0.00000e+00  1.49729e+00 
 6.35626e-03  4.42546e-03  0.00000e+00  3.47944e+00  2.36048e-04  3.59641e+02  3.60051e+02  4.23234e+00  4.27476e+00  1.32130e-01  6.56909e+01  1.47646e+02  4.48329e+05 -5.36090e+05  7.88155e+02  0.00000e+00 -8.69721e+04  3.83293e+04 -4.86427e+04  1.32092e-01  1.00000e+00 -6.59628e+01  0.00000e+00  1.69219e+00 
 6.52453e-03  4.66392e-03 -8.96437e-21  3.47944e+00  2.47612e-04  3.59671e+02  3.60051e+02  4.20896e+00  4.25290e+00  1.45283e-01  6.33945e+01  1.40751e+02  4.81672e+05 -5.60945e+05  7.48153e+02  0.00000e+00 -7.85257e+04  3.20777e+04 -4.64480e+04  1.45249e-01  1.00000e+00 -6.36771e+01  0.00000e+00  1.91618e+00 
 6.69707e-03  4.90238e-03  1.72236e-20  3.47944e+00  2.60072e-04  3.59700e+02  3.60051e+02  4.18269e+00  4.22825e+00  1.58849e-01  6.03683e+01  1.34008e+02  5.08527e+05 -5.81494e+05  7.08922e+02  0.00000e+00 -7.22579e+04  2.66076e+04 -4.56503e+04  1.58817e-01  1.00000e+00 -6.06596e+01  0.00000e+00  2.17219e+00 
 6.87356e-03  5.14086e-03  8.28595e-21  3.47944e+00  2.73238e-04  3.59730e+02  3.60051e+02  4.15334e+00  4.20055e+00  1.72677e-01  5.67310e+01  1.27551e+02  5.29035e+05 -5.97775e+05  6.71011e+02  0.00000e+00 -6.80693e+04  2.19021e+04 -4.61672e+04  1.72648e-01  1.00000e+00 -5.70292e+01  0.00000e+00  2.46400e+00 
 7.05370e-03  5.37934e-03 -1.59677e-20  3.47944e+00  2.86789e-04  3.59759e+02  3.60051e+02  4.12075e+00  4.16964e+00  1.86526e-01  5.26494e+01  1.21524e+02  5.43916e+05 -6.10050e+05  6.35295e+02  0.00000e+00 -6.54982e+04  1.79363e+04 -4.75619e+04  1.86500e-01  1.00000e+00 -5.29528e+01  0.00000e+00  2.79467e+00 
 7.23722e-03  5.61783e-03  0.00000e+00  3.47944e+00  3.00283e-04  3.59787e+02  3.60051e+02  4.08488e+00  4.13536e+00  2.00214e-01  4.82769e+01  1.16064e+02  5.54683e+05 -6.19430e+05  6.02274e+02  0.00000e+00 -6.41450e+04  1.46420e+04 -4.95030e+04  2.00192e-01  1.00000e+00 -4.85845e+01  0.00000e+00  3.16943e+00 
 7.42387e-03  5.85632e-03  0.00000e+00  3.47944e+00  3.13220e-04  3.59816e+02  3.60052e+02  4.04559e+00  4.09755e+00  2.13627e-01  4.37746e+01  1.11270e+02  5.62911e+05 -6.27370e+05  5.72727e+02  0.00000e+00 -6.38860e+04  1.19374e+04 -5.19486e+04  2.13608e-01  1.00000e+00 -4.40860e+01  0.00000e+00  3.59247e+00 
 7.61342e-03  6.09482e-03  0.00000e+00  3.47944e+00  3.25029e-04  3.59843e+02  3.60052e+02  4.00292e+00  4.05610e+00  2.26597e-01  3.92296e+01  1.07228e+02  5.70823e+05 -6.35613e+05  5.46756e+02  0.00000e+00 -6.42436e+04  9.72771e+03 -5.45159e+04  2.26583e-01  1.00000e+00 -3.95450e+01  0.00000e+00  4.07327e+00 
 7.80566e-03  6.33332e-03  0.00000e+00  3.47944e+00  3.35237e-04  3.59871e+02  3.60052e+02  3.95649e+00  4.01062e+00  2.39173e-01  3.47036e+01  1.03963e+02  5.79928e+05 -6.46023e+05  5.24693e+02  0.00000e+00 -6.55699e+04  7.91377e+03 -5.76562e+04  2.39162e-01  1.00000e+00 -3.50241e+01  0.00000e+00  4.61914e+00 
 8.00039e-03  6.57182e-03  0.00000e+00  3.47944e+00  3.43355e-04  3.59899e+02  3.60052e+02  3.90636e+00  3.96101e+00  2.51190e-01  3.01749e+01  1.01505e+02  5.92513e+05 -6.60352e+05  5.06264e+02  0.00000e+00 -6.73328e+04  6.40693e+03 -6.09258e+04  2.51183e-01  1.00000e+00 -3.05019e+01  0.00000e+00  5.24839e+00 
 8.19744e-03  6.81033e-03  1.31016e-20  3.47944e+00  3.49118e-04  3.59926e+02  3.60052e+02  3.85154e+00  3.90629e+00  2.62845e-01  2.55926e+01  9.98301e+01  6.09601e+05 -6.80490e+05  4.91495e+02  0.00000e+00 -7.03973e+04  5.11875e+03 -6.52786e+04  2.62840e-01  1.00000e+00 -2.59284e+01  0.00000e+00  5.97460e+00 
 8.39664e-03  7.04884e-03  0.00000e+00  3.47944e+00  3.52187e-04  3.59954e+02  3.60052e+02  3.79235e+00  3.84669e+00  2.73967e-01  2.08396e+01  9.89606e+01  6.33745e+05 -7.08439e+05  4.79965e+02  0.00000e+00 -7.42136e+04  3.97790e+03 -7.02357e+04  2.73962e-01  1.00000e+00 -2.11869e+01  0.00000e+00  6.83357e+00 
 8.59784e-03  7.28736e-03  0.00000e+00  3.47944e+00  3.52510e-04  3.59983e+02  3.60053e+02  3.72636e+00  3.77983e+00  2.84797e-01  1.57469e+01  9.88704e+01  6.65959e+05 -7.46390e+05  4.71611e+02  0.00000e+00 -7.99595e+04  2.90692e+03 -7.70526e+04  2.84784e-01  1.00000e+00 -1.61090e+01  0.00000e+00  7.85208e+00 
 8.80092e-03  7.52587e-03  0.00000e+00  3.47944e+00  3.49827e-04  3.60012e+02  3.60053e+02  3.65541e+00  3.70742e+00  2.95227e-01  1.00770e+01  9.96292e+01  7.10049e+05 -7.97883e+05  4.66168e+02  0.00000e+00 -8.73685e+04  1.83461e+03 -8.55339e+04  2.95199e-01  1.00000e+00 -1.04583e+01  0.00000e+00  9.10399e+00 
 9.00573e-03  7.76439e-03 -1.17014e-20  3.47944e+00  3.44177e-04  3.60042e+02  3.60053e+02  3.57277e+00  3.62288e+00  3.05497e-01  3.45681e+00  1.01265e+02  7.68417e+05 -8.67004e+05  4.63245e+02  0.00000e+00 -9.81241e+04  6.65555e+02 -9.74585e+04  3.05450e-01  1.00000e+00 -3.86232e+00  0.00000e+00  1.06543e+01 
 9.21216e-03  8.00291e-03  0.00000e+00  3.47944e+00  3.35252e-04  3.60075e+02  3.60053e+02  3.48558e+00  3.53325e+00  3.15505e-01 -1.05707e+01  1.03962e+02  8.49189e+05 -9.61558e+05  4.63062e+02  0.00000e+00 -1.11906e+05 -1.64629e+03 -1.13552e+05  3.15439e-01  1.00000e+00  9.60987e+00  0.00000e+00  1.26887e+01 
 9.42012e-03  8.24144e-03  0.00000e+00  3.47944e+00  3.23038e-04  3.60112e+02  3.60054e+02  3.37514e+00  3.41994e+00  3.25617e-01 -3.47681e+01  1.07893e+02  9.59019e+05 -1.09225e+06  4.65307e+02  0.00000e+00 -1.32770e+05 -5.80944e+03 -1.38580e+05  3.25537e-01  1.00000e+00  3.37217e+01  0.00000e+00  1.53773e+01 
 9.62949e-03  8.47996e-03  0.00000e+00  3.47944e+00  3.06661e-04  3.60157e+02  3.60054e+02  3.25950e+00  3.30013e+00  3.35687e-01 -7.00806e+01  1.13656e+02  1.12238e+06 -1.28405e+06  4.72126e+02  0.00000e+00 -1.61192e+05 -1.21319e+04 -1.73324e+05  3.35605e-01  1.00000e+00  6.89182e+01  0.00000e+00  1.93060e+01 
 9.84019e-03  8.71849e-03  0.00000e+00  3.47944e+00  2.85933e-04  3.60216e+02  3.60055e+02  3.09395e+00  3.13081e+00  3.45873e-01 -1.28145e+02  1.21896e+02  1.36809e+06 -1.57517e+06  4.80949e+02  0.00000e+00 -2.06602e+05 -2.32388e+04 -2.29841e+05  3.45788e-01  1.00000e+00  1.26825e+02  0.00000e+00  2.51591e+01 
 1.00521e-02  8.95702e-03  0.00000e+00  3.47944e+00  2.59452e-04  3.60307e+02  3.60055e+02  2.92129e+00  2.95457e+00  3.56176e-01 -2.41592e+02  1.34339e+02  1.80226e+06 -2.06218e+06  4.95624e+02  0.00000e+00 -2.59421e+05 -4.70729e+04 -3.06494e+05  3.56090e-01  1.00000e+00  2.40034e+02  0.00000e+00  3.59663e+01 
 1.02653e-02  9.19555e-03  0.00000e+00  3.47944e+00  2.27475e-04  3.60485e+02  3.60056e+02  2.62104e+00  2.65037e+00  3.67432e-01 -5.20553e+02  1.53226e+02  2.64954e+06 -2.92392e+06  5.02600e+02  0.00000e+00 -2.73869e+05 -1.12449e+05 -3.86318e+05  3.67337e-01  1.00000e+00  5.18633e+02  0.00000e+00  5.97746e+01 
 1.04795e-02  9.43408e-03  0.00000e+00  3.47944e+00  1.92240e-04  3.61000e+02  3.60057e+02  2.18108e+00  2.20070e+00  3.82173e-01 -4.74224e+03  1.81313e+02  4.83401e+06 -4.29487e+06  5.11126e+02  1.61613e+06  2.15578e+06 -2.18061e+06 -2.48248e+04  3.82086e-01  1.00000e+00  4.73974e+03  3.19717e+03  1.51791e+02 
