# Code_Saturne plot output (1D profile)
#
# Iteration output: 6954
# Time output:      2.30003e+01
#
#COLUMN_TITLES: Distance | X | Y | Z | diameter_Field2 | temp_Field1 | temp_Field2 | Velocity_Field1[Z] | Velocity_Field2[Z] | vol_f_Field2 | mass_trans_Field1 | Xd_Field2 | BK | COAL | COMP | NUCL | W1 | MT | SMBR | ALPBB | CONDNUM | GAMA | GAMANUC | epsilon_Field1
 4.56474e-03  1.39645e-04  0.00000e+00  3.47944e+00  7.84829e-04  3.60224e+02  3.60089e+02  7.03711e+00  7.18385e+00  5.55912e-01 -2.49477e+01  4.43204e+01  2.33121e+05 -2.53066e+05  7.12122e+02  0.00000e+00 -1.92330e+04 -6.77539e+02 -1.99105e+04  5.55915e-01  1.00000e+00  2.49769e+01  0.00000e+00  5.53545e+00 
 4.57812e-03  3.76525e-04  4.25872e-21  3.47944e+00  7.83876e-04  3.60224e+02  3.60089e+02  7.03607e+00  7.18333e+00  5.55986e-01 -2.49844e+01  4.43742e+01  2.33970e+05 -2.53716e+05  7.12975e+02  0.00000e+00 -1.90333e+04 -6.79272e+02 -1.97126e+04  5.55989e-01  1.00000e+00  2.50137e+01  0.00000e+00  5.56341e+00 
 4.60371e-03  6.13858e-04  0.00000e+00  3.47944e+00  7.81650e-04  3.60223e+02  3.60089e+02  7.03224e+00  7.17921e+00  5.56137e-01 -2.50347e+01  4.45006e+01  2.35796e+05 -2.55394e+05  7.14699e+02  0.00000e+00 -1.88835e+04 -6.82394e+02 -1.95659e+04  5.56141e-01  1.00000e+00  2.50641e+01  0.00000e+00  5.61782e+00 
 4.64138e-03  8.51483e-04  0.00000e+00  3.47944e+00  7.78249e-04  3.60223e+02  3.60089e+02  7.02676e+00  7.17302e+00  5.56383e-01 -2.51057e+01  4.46950e+01  2.38564e+05 -2.58036e+05  7.17333e+02  0.00000e+00 -1.87554e+04 -6.87017e+02 -1.94424e+04  5.56387e-01  1.00000e+00  2.51353e+01  0.00000e+00  5.69906e+00 
 4.69084e-03  1.08931e-03  0.00000e+00  3.47944e+00  7.73660e-04  3.60222e+02  3.60089e+02  7.01934e+00  7.16456e+00  5.56704e-01 -2.52021e+01  4.49602e+01  2.42328e+05 -2.61699e+05  7.20906e+02  0.00000e+00 -1.86497e+04 -6.93351e+02 -1.93430e+04  5.56709e-01  1.00000e+00  2.52320e+01  0.00000e+00  5.80810e+00 
 4.75174e-03  1.32727e-03  1.05001e-20  3.47944e+00  7.67931e-04  3.60222e+02  3.60089e+02  7.01006e+00  7.15394e+00  5.57124e-01 -2.53243e+01  4.52956e+01  2.47099e+05 -2.66411e+05  7.25416e+02  0.00000e+00 -1.85864e+04 -7.01385e+02 -1.92878e+04  5.57128e-01  1.00000e+00  2.53545e+01  0.00000e+00  5.94586e+00 
 4.82366e-03  1.56534e-03  0.00000e+00  3.47944e+00  7.61078e-04  3.60221e+02  3.60089e+02  6.99887e+00  7.14112e+00  5.57631e-01 -2.54731e+01  4.57035e+01  2.52936e+05 -2.72242e+05  7.30884e+02  0.00000e+00 -1.85753e+04 -7.11222e+02 -1.92865e+04  5.57635e-01  1.00000e+00  2.55037e+01  0.00000e+00  6.11371e+00 
 4.90611e-03  1.80349e-03  8.81027e-21  3.47944e+00  7.53149e-04  3.60220e+02  3.60089e+02  6.98576e+00  7.12610e+00  5.58227e-01 -2.56488e+01  4.61847e+01  2.59885e+05 -2.79246e+05  7.37314e+02  0.00000e+00 -1.86239e+04 -7.22901e+02 -1.93468e+04  5.58232e-01  1.00000e+00  2.56799e+01  0.00000e+00  6.31329e+00 
 4.99859e-03  2.04170e-03  0.00000e+00  3.47944e+00  7.44205e-04  3.60219e+02  3.60089e+02  6.97068e+00  7.10883e+00  5.58922e-01 -2.58511e+01  4.67398e+01  2.67997e+05 -2.87496e+05  7.44704e+02  0.00000e+00 -1.87546e+04 -7.36451e+02 -1.94911e+04  5.58927e-01  1.00000e+00  2.58828e+01  0.00000e+00  6.54640e+00 
 5.10055e-03  2.27996e-03  7.58893e-21  3.47944e+00  7.34315e-04  3.60218e+02  3.60089e+02  6.95356e+00  7.08925e+00  5.59709e-01 -2.60797e+01  4.73694e+01  2.77344e+05 -2.97052e+05  7.53023e+02  0.00000e+00 -1.89552e+04 -7.51922e+02 -1.97071e+04  5.59715e-01  1.00000e+00  2.61120e+01  0.00000e+00  6.81562e+00 
 5.21143e-03  2.51826e-03  7.09702e-21  3.47944e+00  7.23564e-04  3.60216e+02  3.60089e+02  6.93437e+00  7.06738e+00  5.60567e-01 -2.63342e+01  4.80733e+01  2.87996e+05 -3.07974e+05  7.62290e+02  0.00000e+00 -1.92161e+04 -7.69374e+02 -1.99854e+04  5.60573e-01  1.00000e+00  2.63672e+01  0.00000e+00  7.12300e+00 
 5.33068e-03  2.75659e-03  1.33300e-20  3.47944e+00  7.12037e-04  3.60215e+02  3.60089e+02  6.91304e+00  7.04314e+00  5.61504e-01 -2.66133e+01  4.88516e+01  3.00043e+05 -3.20328e+05  7.72373e+02  0.00000e+00 -1.95132e+04 -7.88813e+02 -2.03020e+04  5.61511e-01  1.00000e+00  2.66472e+01  0.00000e+00  7.47260e+00 
 5.45775e-03  2.99495e-03  1.25651e-20  3.47944e+00  6.99834e-04  3.60214e+02  3.60089e+02  6.88946e+00  7.01647e+00  5.62508e-01 -2.69173e+01  4.97037e+01  3.13559e+05 -3.34188e+05  7.83329e+02  0.00000e+00 -1.98459e+04 -8.10303e+02 -2.06562e+04  5.62516e-01  1.00000e+00  2.69521e+01  0.00000e+00  7.86698e+00 
 5.59212e-03  3.23333e-03  0.00000e+00  3.47944e+00  6.87027e-04  3.60212e+02  3.60089e+02  6.86357e+00  6.98733e+00  5.63590e-01 -2.72456e+01  5.06303e+01  3.28662e+05 -3.49653e+05  7.95106e+02  0.00000e+00 -2.01956e+04 -8.33892e+02 -2.10294e+04  5.63598e-01  1.00000e+00  2.72814e+01  0.00000e+00  8.31131e+00 
 5.73326e-03  3.47172e-03  0.00000e+00  3.47944e+00  6.73707e-04  3.60210e+02  3.60090e+02  6.83525e+00  6.95563e+00  5.64751e-01 -2.75994e+01  5.16316e+01  3.45444e+05 -3.66835e+05  8.07718e+02  0.00000e+00 -2.05833e+04 -8.59677e+02 -2.14430e+04  5.64757e-01  1.00000e+00  2.76362e+01  0.00000e+00  8.80904e+00 
 5.88069e-03  3.71014e-03 -5.35987e-21  3.47944e+00  6.59924e-04  3.60209e+02  3.60090e+02  6.80443e+00  6.92130e+00  5.66002e-01 -2.79790e+01  5.27101e+01  3.64071e+05 -3.85891e+05  8.21110e+02  0.00000e+00 -2.09994e+04 -8.87765e+02 -2.18872e+04  5.66006e-01  1.00000e+00  2.80171e+01  0.00000e+00  9.36718e+00 
 6.03395e-03  3.94857e-03  5.10973e-21  3.47944e+00  6.45756e-04  3.60207e+02  3.60090e+02  6.77092e+00  6.88420e+00  5.67334e-01 -2.83873e+01  5.38669e+01  3.84669e+05 -4.06984e+05  8.35303e+02  0.00000e+00 -2.14794e+04 -9.18351e+02 -2.23977e+04  5.67338e-01  1.00000e+00  2.84266e+01  0.00000e+00  9.98994e+00 
 6.19261e-03  4.18701e-03  0.00000e+00  3.47944e+00  6.31225e-04  3.60205e+02  3.60090e+02  6.73468e+00  6.84429e+00  5.68749e-01 -2.88259e+01  5.51071e+01  4.07490e+05 -4.30341e+05  8.50304e+02  0.00000e+00 -2.20007e+04 -9.51666e+02 -2.29524e+04  5.68752e-01  1.00000e+00  2.88667e+01  0.00000e+00  1.06869e+01 
 6.35626e-03  4.42546e-03  0.00000e+00  3.47944e+00  6.16399e-04  3.60203e+02  3.60090e+02  6.69544e+00  6.80133e+00  5.70239e-01 -2.93004e+01  5.64328e+01  4.32708e+05 -4.56194e+05  8.66102e+02  0.00000e+00 -2.26203e+04 -9.88046e+02 -2.36084e+04  5.70243e-01  1.00000e+00  2.93428e+01  0.00000e+00  1.14638e+01 
 6.52453e-03  4.66392e-03 -8.96437e-21  3.47944e+00  6.01277e-04  3.60201e+02  3.60091e+02  6.65320e+00  6.75530e+00  5.71806e-01 -2.98150e+01  5.78525e+01  4.60688e+05 -4.84882e+05  8.82743e+02  0.00000e+00 -2.33114e+04 -1.02790e+03 -2.43393e+04  5.71810e-01  1.00000e+00  2.98590e+01  0.00000e+00  1.23344e+01 
 6.69707e-03  4.90238e-03  1.72236e-20  3.47944e+00  5.85923e-04  3.60199e+02  3.60091e+02  6.60754e+00  6.70581e+00  5.73439e-01 -3.03791e+01  5.93688e+01  4.91659e+05 -5.16730e+05  9.00206e+02  0.00000e+00 -2.41712e+04 -1.07177e+03 -2.52429e+04  5.73444e-01  1.00000e+00  3.04250e+01  0.00000e+00  1.33055e+01 
 6.87356e-03  5.14086e-03  8.28595e-21  3.47944e+00  5.70303e-04  3.60197e+02  3.60091e+02  6.55859e+00  6.65299e+00  5.75146e-01 -3.10023e+01  6.09953e+01  5.26181e+05 -5.52248e+05  9.18578e+02  0.00000e+00 -2.51482e+04 -1.12043e+03 -2.62687e+04  5.75151e-01  1.00000e+00  3.10501e+01  0.00000e+00  1.43985e+01 
 7.05370e-03  5.37934e-03 -1.59677e-20  3.47944e+00  5.54488e-04  3.60195e+02  3.60092e+02  6.50556e+00  6.59607e+00  5.76909e-01 -3.17009e+01  6.27355e+01  5.64557e+05 -5.91894e+05  9.37819e+02  0.00000e+00 -2.63991e+04 -1.17479e+03 -2.75739e+04  5.76916e-01  1.00000e+00  3.17509e+01  0.00000e+00  1.56218e+01 
 7.23722e-03  5.61783e-03  0.00000e+00  3.47944e+00  5.38403e-04  3.60194e+02  3.60092e+02  6.44901e+00  6.53557e+00  5.78744e-01 -3.24945e+01  6.46102e+01  6.07669e+05 -6.36464e+05  9.58160e+02  0.00000e+00 -2.78369e+04 -1.23630e+03 -2.90732e+04  5.78752e-01  1.00000e+00  3.25469e+01  0.00000e+00  1.70088e+01 
 7.42387e-03  5.85632e-03  0.00000e+00  3.47944e+00  5.22128e-04  3.60192e+02  3.60093e+02  6.38728e+00  6.46988e+00  5.80626e-01 -3.34135e+01  6.66247e+01  6.55967e+05 -6.86636e+05  9.79372e+02  0.00000e+00 -2.96889e+04 -1.30670e+03 -3.09956e+04  5.80635e-01  1.00000e+00  3.34685e+01  0.00000e+00  1.85717e+01 
 7.61342e-03  6.09482e-03  0.00000e+00  3.47944e+00  5.05536e-04  3.60190e+02  3.60093e+02  6.32209e+00  6.40067e+00  5.82561e-01 -3.44975e+01  6.88121e+01  7.10866e+05 -7.43726e+05  1.00219e+03  0.00000e+00 -3.18578e+04 -1.38879e+03 -3.32466e+04  5.82569e-01  1.00000e+00  3.45553e+01  0.00000e+00  2.03616e+01 
 7.80566e-03  6.33332e-03  0.00000e+00  3.47944e+00  4.88723e-04  3.60189e+02  3.60093e+02  6.24942e+00  6.32395e+00  5.84560e-01 -3.58053e+01  7.11800e+01  7.73093e+05 -8.08774e+05  1.02539e+03  0.00000e+00 -3.46556e+04 -1.48599e+03 -3.61416e+04  5.84568e-01  1.00000e+00  3.58662e+01  0.00000e+00  2.24035e+01 
 8.00039e-03  6.57182e-03  0.00000e+00  3.47944e+00  4.71475e-04  3.60188e+02  3.60094e+02  6.17455e+00  6.24500e+00  5.86636e-01 -3.74216e+01  7.37847e+01  8.45178e+05 -8.84062e+05  1.05057e+03  0.00000e+00 -3.78334e+04 -1.60424e+03 -3.94376e+04  5.86642e-01  1.00000e+00  3.74860e+01  0.00000e+00  2.47919e+01 
 8.19744e-03  6.81033e-03  1.31016e-20  3.47944e+00  4.53941e-04  3.60187e+02  3.60095e+02  6.08700e+00  6.15328e+00  5.88730e-01 -3.94739e+01  7.66356e+01  9.28114e+05 -9.71481e+05  1.07636e+03  0.00000e+00 -4.22905e+04 -1.75137e+03 -4.40419e+04  5.88736e-01  1.00000e+00  3.95421e+01  0.00000e+00  2.75421e+01 
 8.39664e-03  7.04884e-03  0.00000e+00  3.47944e+00  4.35745e-04  3.60187e+02  3.60095e+02  6.00172e+00  6.06382e+00  5.90954e-01 -4.21480e+01  7.98368e+01  1.02700e+06 -1.07530e+06  1.10579e+03  0.00000e+00 -4.71904e+04 -1.94079e+03 -4.91312e+04  5.90957e-01  1.00000e+00  4.22205e+01  0.00000e+00  3.08651e+01 
 8.59784e-03  7.28736e-03  0.00000e+00  3.47944e+00  4.17132e-04  3.60188e+02  3.60096e+02  5.89187e+00  5.94963e+00  5.93175e-01 -4.57622e+01  8.34004e+01  1.14349e+06 -1.19910e+06  1.13482e+03  0.00000e+00 -5.44685e+04 -2.19297e+03 -5.66615e+04  5.93178e-01  1.00000e+00  4.58396e+01  0.00000e+00  3.47700e+01 
 8.80092e-03  7.52587e-03  0.00000e+00  3.47944e+00  3.97440e-04  3.60189e+02  3.60096e+02  5.79601e+00  5.84944e+00  5.95600e-01 -5.07781e+01  8.75336e+01  1.28858e+06 -1.35220e+06  1.17158e+03  0.00000e+00 -6.24445e+04 -2.54338e+03 -6.49879e+04  5.95601e-01  1.00000e+00  5.08613e+01  0.00000e+00  3.97172e+01 
 9.00573e-03  7.76439e-03 -1.17014e-20  3.47944e+00  3.77104e-04  3.60192e+02  3.60097e+02  5.65015e+00  5.69896e+00  5.98024e-01 -5.80942e+01  9.22557e+01  1.46574e+06 -1.54238e+06  1.20504e+03  0.00000e+00 -7.54334e+04 -3.05405e+03 -7.84875e+04  5.98025e-01  1.00000e+00  5.81840e+01  0.00000e+00  4.57224e+01 
 9.21216e-03  8.00291e-03  0.00000e+00  3.47944e+00  3.54921e-04  3.60198e+02  3.60098e+02  5.54277e+00  5.58714e+00  6.00762e-01 -6.91885e+01  9.80229e+01  1.70229e+06 -1.79340e+06  1.25517e+03  0.00000e+00 -8.98531e+04 -3.84647e+03 -9.36996e+04  6.00762e-01  1.00000e+00  6.92865e+01  0.00000e+00  5.39115e+01 
 9.42012e-03  8.24144e-03  0.00000e+00  3.47944e+00  3.31686e-04  3.60208e+02  3.60099e+02  5.33240e+00  5.37127e+00  6.03456e-01 -8.71291e+01  1.04892e+02  2.00772e+06 -2.12791e+06  1.29829e+03  0.00000e+00 -1.18893e+05 -5.15919e+03 -1.24052e+05  6.03455e-01  1.00000e+00  8.72367e+01  0.00000e+00  6.42911e+01 
 9.62949e-03  8.47996e-03  0.00000e+00  3.47944e+00  3.05198e-04  3.60224e+02  3.60100e+02  5.20332e+00  5.23788e+00  6.06645e-01 -1.18533e+02  1.13997e+02  2.46292e+06 -2.62192e+06  1.37373e+03  0.00000e+00 -1.57629e+05 -7.58633e+03 -1.65216e+05  6.06644e-01  1.00000e+00  1.18653e+02  0.00000e+00  8.00825e+01 
 9.84019e-03  8.71849e-03  0.00000e+00  3.47944e+00  2.76221e-04  3.60254e+02  3.60101e+02  4.89319e+00  4.92228e+00  6.09828e-01 -1.79934e+02  1.25959e+02  3.14100e+06 -3.37648e+06  1.43051e+03  0.00000e+00 -2.34053e+05 -1.26554e+04 -2.46709e+05  6.09825e-01  1.00000e+00  1.80072e+02  0.00000e+00  1.03271e+02 
 1.00521e-02  8.95702e-03  0.00000e+00  3.47944e+00  2.40884e-04  3.60314e+02  3.60102e+02  4.69489e+00  4.72031e+00  6.13785e-01 -3.24918e+02  1.44440e+02  4.40136e+06 -4.76202e+06  1.56290e+03  0.00000e+00 -3.59103e+05 -2.60329e+04 -3.85135e+05  6.13777e-01  1.00000e+00  3.25081e+02  0.00000e+00  1.47394e+02 
 1.02653e-02  9.19555e-03  0.00000e+00  3.47944e+00  1.98386e-04  3.60465e+02  3.60104e+02  4.16154e+00  4.18232e+00  6.17300e-01 -7.82169e+02  1.75388e+02  7.13179e+06 -7.73538e+06  1.67051e+03  0.00000e+00 -6.01921e+05 -7.56491e+04 -6.77570e+05  6.17286e-01  1.00000e+00  7.82376e+02  0.00000e+00  2.43663e+02 
 1.04795e-02  9.43408e-03  0.00000e+00  3.47944e+00  1.45943e-04  3.61030e+02  3.60106e+02  3.54353e+00  3.55659e+00  6.24491e-01 -7.40869e+03  2.38419e+02  1.59975e+07 -1.57336e+07  1.97584e+03  1.69615e+06  1.96203e+06 -1.99872e+06 -3.66882e+04  6.24470e-01  1.00000e+00  7.40898e+03  4.07143e+03  6.17064e+02 
