# Code_Saturne plot output (1D profile)
#
# Iteration output: 10418
# Time output:      2.30000e+01
#
#COLUMN_TITLES: Distance | X | Y | Z | diameter_Field2 | temp_Field1 | temp_Field2 | Velocity_Field1[Z] | Velocity_Field2[Z] | vol_f_Field2 | mass_trans_Field1 | Xd_Field2 | BK | COAL | COMP | NUCL | W1 | MT | SMBR | ALPBB | CONDNUM | GAMA | GAMANUC | epsilon_Field1
 4.56474e-03  1.39645e-04  0.00000e+00  3.47944e+00  7.76564e-04  3.60293e+02  3.60126e+02  8.40846e+00  8.55650e+00  6.60633e-01 -3.31165e+01  4.47139e+01  2.50594e+05 -2.50616e+05  1.20326e+03  0.00000e+00  1.18155e+03 -1.15059e+03  3.09529e+01  6.60647e-01  1.00000e+00  3.31132e+01  0.00000e+00  9.36679e+00 
 4.57812e-03  3.76525e-04  4.25872e-21  3.47944e+00  7.75052e-04  3.60292e+02  3.60126e+02  8.40741e+00  8.55574e+00  6.60708e-01 -3.31833e+01  4.48011e+01  2.51752e+05 -2.51884e+05  1.20557e+03  0.00000e+00  1.07302e+03 -1.15503e+03 -8.20079e+01  6.60721e-01  1.00000e+00  3.31799e+01  0.00000e+00  9.41136e+00 
 4.60371e-03  6.13858e-04  0.00000e+00  3.47944e+00  7.72188e-04  3.60292e+02  3.60126e+02  8.40297e+00  8.55077e+00  6.60853e-01 -3.32617e+01  4.49673e+01  2.53982e+05 -2.54287e+05  1.20935e+03  0.00000e+00  9.04345e+02 -1.16180e+03 -2.57458e+02  6.60866e-01  1.00000e+00  3.32583e+01  0.00000e+00  9.49855e+00 
 4.64138e-03  8.51483e-04  0.00000e+00  3.47944e+00  7.68013e-04  3.60292e+02  3.60126e+02  8.39686e+00  8.54371e+00  6.61075e-01 -3.33654e+01  4.52117e+01  2.57290e+05 -2.57831e+05  1.21532e+03  0.00000e+00  6.74288e+02 -1.17137e+03 -4.97084e+02  6.61086e-01  1.00000e+00  3.33620e+01  0.00000e+00  9.62905e+00 
 4.69084e-03  1.08931e-03  0.00000e+00  3.47944e+00  7.62553e-04  3.60291e+02  3.60126e+02  8.38844e+00  8.53402e+00  6.61372e-01 -3.34996e+01  4.55354e+01  2.61717e+05 -2.62556e+05  1.22294e+03  0.00000e+00  3.83469e+02 -1.18398e+03 -8.00507e+02  6.61382e-01  1.00000e+00  3.34962e+01  0.00000e+00  9.80478e+00 
 4.75174e-03  1.32727e-03  1.05001e-20  3.47944e+00  7.55876e-04  3.60290e+02  3.60126e+02  8.37800e+00  8.52200e+00  6.61757e-01 -3.36632e+01  4.59377e+01  2.67281e+05 -2.68485e+05  1.23239e+03  0.00000e+00  2.91523e+01 -1.19957e+03 -1.17042e+03  6.61765e-01  1.00000e+00  3.36597e+01  0.00000e+00  1.00276e+01 
 4.82366e-03  1.56534e-03  0.00000e+00  3.47944e+00  7.48034e-04  3.60289e+02  3.60126e+02  8.36535e+00  8.50748e+00  6.62221e-01 -3.38557e+01  4.64193e+01  2.74041e+05 -2.75668e+05  1.24364e+03  0.00000e+00 -3.83466e+02 -1.21823e+03 -1.60170e+03  6.62229e-01  1.00000e+00  3.38523e+01  0.00000e+00  1.03001e+01 
 4.90611e-03  1.80349e-03  8.81027e-21  3.47944e+00  7.39111e-04  3.60288e+02  3.60126e+02  8.35053e+00  8.49053e+00  6.62783e-01 -3.40757e+01  4.69798e+01  2.82032e+05 -2.84152e+05  1.25668e+03  0.00000e+00 -8.62738e+02 -1.23990e+03 -2.10264e+03  6.62790e-01  1.00000e+00  3.40722e+01  0.00000e+00  1.06252e+01 
 4.99859e-03  2.04170e-03  0.00000e+00  3.47944e+00  7.29168e-04  3.60286e+02  3.60126e+02  8.33348e+00  8.47110e+00  6.63424e-01 -3.43226e+01  4.76205e+01  2.91343e+05 -2.94015e+05  1.27150e+03  0.00000e+00 -1.40089e+03 -1.26470e+03 -2.66559e+03  6.63431e-01  1.00000e+00  3.43190e+01  0.00000e+00  1.10066e+01 
 5.10055e-03  2.27996e-03  7.58893e-21  3.47944e+00  7.18293e-04  3.60285e+02  3.60126e+02  8.31413e+00  8.44912e+00  6.64158e-01 -3.45945e+01  4.83416e+01  3.02042e+05 -3.05331e+05  1.28809e+03  0.00000e+00 -2.00049e+03 -1.29259e+03 -3.29309e+03  6.64164e-01  1.00000e+00  3.45908e+01  0.00000e+00  1.14488e+01 
 5.21143e-03  2.51826e-03  7.09702e-21  3.47944e+00  7.06564e-04  3.60283e+02  3.60126e+02  8.29239e+00  8.42456e+00  6.64965e-01 -3.48908e+01  4.91442e+01  3.14236e+05 -3.18193e+05  1.30643e+03  0.00000e+00 -2.64992e+03 -1.32370e+03 -3.97362e+03  6.64971e-01  1.00000e+00  3.48871e+01  0.00000e+00  1.19563e+01 
 5.33068e-03  2.75659e-03  1.33300e-20  3.47944e+00  6.94080e-04  3.60281e+02  3.60126e+02  8.26821e+00  8.39737e+00  6.65877e-01 -3.52089e+01  5.00283e+01  3.27999e+05 -3.32691e+05  1.32646e+03  0.00000e+00 -3.36572e+03 -1.35794e+03 -4.72365e+03  6.65883e-01  1.00000e+00  3.52050e+01  0.00000e+00  1.25357e+01 
 5.45775e-03  2.99495e-03  1.25651e-20  3.47944e+00  6.80915e-04  3.60280e+02  3.60126e+02  8.24140e+00  8.36739e+00  6.66847e-01 -3.55482e+01  5.09958e+01  3.43493e+05 -3.48952e+05  1.34820e+03  0.00000e+00 -4.11127e+03 -1.39551e+03 -5.50678e+03  6.66852e-01  1.00000e+00  3.55443e+01  0.00000e+00  1.31925e+01 
 5.59212e-03  3.23333e-03  0.00000e+00  3.47944e+00  6.67173e-04  3.60277e+02  3.60127e+02  8.21197e+00  8.33464e+00  6.67929e-01 -3.59051e+01  5.20464e+01  3.60792e+05 -3.67087e+05  1.37157e+03  0.00000e+00 -4.92343e+03 -1.43623e+03 -6.35966e+03  6.67934e-01  1.00000e+00  3.59011e+01  0.00000e+00  1.39356e+01 
 5.73326e-03  3.47172e-03  0.00000e+00  3.47944e+00  6.52914e-04  3.60275e+02  3.60127e+02  8.17961e+00  8.29882e+00  6.69051e-01 -3.62809e+01  5.31833e+01  3.80127e+05 -3.87277e+05  1.39659e+03  0.00000e+00 -5.75348e+03 -1.48047e+03 -7.23395e+03  6.69056e-01  1.00000e+00  3.62768e+01  0.00000e+00  1.47716e+01 
 5.88069e-03  3.71014e-03 -5.35987e-21  3.47944e+00  6.38246e-04  3.60273e+02  3.60127e+02  8.14441e+00  8.26005e+00  6.70313e-01 -3.66704e+01  5.44058e+01  4.01549e+05 -4.09649e+05  1.42317e+03  0.00000e+00 -6.67655e+03 -1.52788e+03 -8.20443e+03  6.70318e-01  1.00000e+00  3.66661e+01  0.00000e+00  1.57131e+01 
 6.03395e-03  3.94857e-03  5.10973e-21  3.47944e+00  6.23205e-04  3.60271e+02  3.60127e+02  8.10587e+00  8.21785e+00  6.71594e-01 -3.70776e+01  5.57193e+01  4.25399e+05 -4.34468e+05  1.45135e+03  0.00000e+00 -7.61790e+03 -1.57912e+03 -9.19702e+03  6.71599e-01  1.00000e+00  3.70732e+01  0.00000e+00  1.67673e+01 
 6.19261e-03  4.18701e-03  0.00000e+00  3.47944e+00  6.07904e-04  3.60268e+02  3.60128e+02  8.06427e+00  8.17252e+00  6.73043e-01 -3.74951e+01  5.71222e+01  4.51702e+05 -4.61867e+05  1.48103e+03  0.00000e+00 -8.68361e+03 -1.63358e+03 -1.03172e+04  6.73048e-01  1.00000e+00  3.74906e+01  0.00000e+00  1.79525e+01 
 6.35626e-03  4.42546e-03  0.00000e+00  3.47944e+00  5.92341e-04  3.60265e+02  3.60128e+02  8.01876e+00  8.12321e+00  6.74476e-01 -3.79330e+01  5.86234e+01  4.80965e+05 -4.92255e+05  1.51222e+03  0.00000e+00 -9.77726e+03 -1.69249e+03 -1.14697e+04  6.74481e-01  1.00000e+00  3.79283e+01  0.00000e+00  1.92761e+01 
 6.52453e-03  4.66392e-03 -8.96437e-21  3.47944e+00  5.76640e-04  3.60263e+02  3.60128e+02  7.97006e+00  8.07066e+00  6.76116e-01 -3.83798e+01  6.02202e+01  5.13158e+05 -5.25753e+05  1.54493e+03  0.00000e+00 -1.10495e+04 -1.75479e+03 -1.28043e+04  6.76122e-01  1.00000e+00  3.83750e+01  0.00000e+00  2.07655e+01 
 6.69707e-03  4.90238e-03  1.72236e-20  3.47944e+00  5.60748e-04  3.60260e+02  3.60129e+02  7.91662e+00  8.01332e+00  6.77692e-01 -3.88568e+01  6.19274e+01  5.49060e+05 -5.63012e+05  1.57906e+03  0.00000e+00 -1.23735e+04 -1.82271e+03 -1.41962e+04  6.77698e-01  1.00000e+00  3.88518e+01  0.00000e+00  2.24279e+01 
 6.87356e-03  5.14086e-03  8.28595e-21  3.47944e+00  5.44803e-04  3.60257e+02  3.60129e+02  7.86000e+00  7.95278e+00  6.79518e-01 -3.93471e+01  6.37404e+01  5.88567e+05 -6.04125e+05  1.61482e+03  0.00000e+00 -1.39439e+04 -1.89463e+03 -1.58385e+04  6.79525e-01  1.00000e+00  3.93418e+01  0.00000e+00  2.43053e+01 
 7.05370e-03  5.37934e-03 -1.59677e-20  3.47944e+00  5.28696e-04  3.60255e+02  3.60130e+02  7.79731e+00  7.88611e+00  6.81228e-01 -3.98906e+01  6.56830e+01  6.32851e+05 -6.50157e+05  1.65188e+03  0.00000e+00 -1.56548e+04 -1.97436e+03 -1.76291e+04  6.81236e-01  1.00000e+00  3.98851e+01  0.00000e+00  2.64040e+01 
 7.23722e-03  5.61783e-03  0.00000e+00  3.47944e+00  5.12575e-04  3.60252e+02  3.60130e+02  7.73199e+00  7.81683e+00  6.83225e-01 -4.04639e+01  6.77497e+01  6.81802e+05 -7.01141e+05  1.69093e+03  0.00000e+00 -1.76477e+04 -2.05971e+03 -1.97074e+04  6.83232e-01  1.00000e+00  4.04583e+01  0.00000e+00  2.87915e+01 
 7.42387e-03  5.85632e-03  0.00000e+00  3.47944e+00  4.96268e-04  3.60249e+02  3.60131e+02  7.65808e+00  7.73888e+00  6.85015e-01 -4.11410e+01  6.99767e+01  7.37230e+05 -7.58834e+05  1.73100e+03  0.00000e+00 -1.98727e+04 -2.15735e+03 -2.20301e+04  6.85022e-01  1.00000e+00  4.11351e+01  0.00000e+00  3.14712e+01 
 7.61342e-03  6.09482e-03  0.00000e+00  3.47944e+00  4.79933e-04  3.60247e+02  3.60132e+02  7.58341e+00  7.66021e+00  6.87152e-01 -4.18898e+01  7.23594e+01  7.99028e+05 -8.23257e+05  1.77401e+03  0.00000e+00 -2.24549e+04 -2.26434e+03 -2.47193e+04  6.87159e-01  1.00000e+00  4.18836e+01  0.00000e+00  3.45569e+01 
 7.80566e-03  6.33332e-03  0.00000e+00  3.47944e+00  4.63352e-04  3.60244e+02  3.60132e+02  7.49490e+00  7.56757e+00  6.89010e-01 -4.28479e+01  7.49498e+01  8.69910e+05 -8.97271e+05  1.81724e+03  0.00000e+00 -2.55432e+04 -2.39257e+03 -2.79358e+04  6.89016e-01  1.00000e+00  4.28415e+01  0.00000e+00  3.80467e+01 
 8.00039e-03  6.57182e-03  0.00000e+00  3.47944e+00  4.46654e-04  3.60242e+02  3.60133e+02  7.41063e+00  7.47925e+00  6.91329e-01 -4.39764e+01  7.77529e+01  9.50036e+05 -9.81188e+05  1.86589e+03  0.00000e+00 -2.92860e+04 -2.53886e+03 -3.18248e+04  6.91335e-01  1.00000e+00  4.39697e+01  0.00000e+00  4.21415e+01 
 8.19744e-03  6.81033e-03  1.31016e-20  3.47944e+00  4.29620e-04  3.60240e+02  3.60134e+02  7.30177e+00  7.36612e+00  6.93324e-01 -4.55397e+01  8.08372e+01  1.04347e+06 -1.07949e+06  1.91229e+03  0.00000e+00 -3.41140e+04 -2.72554e+03 -3.68396e+04  6.93328e-01  1.00000e+00  4.55326e+01  0.00000e+00  4.68347e+01 
 8.39664e-03  7.04884e-03  0.00000e+00  3.47944e+00  4.12238e-04  3.60239e+02  3.60135e+02  7.20827e+00  7.26852e+00  6.95750e-01 -4.75217e+01  8.42469e+01  1.15235e+06 -1.19395e+06  1.97008e+03  0.00000e+00 -3.96385e+04 -2.95378e+03 -4.25923e+04  6.95754e-01  1.00000e+00  4.75144e+01  0.00000e+00  5.24913e+01 
 8.59784e-03  7.28736e-03  0.00000e+00  3.47944e+00  3.94405e-04  3.60238e+02  3.60136e+02  7.06988e+00  7.12558e+00  6.97935e-01 -5.04621e+01  8.80580e+01  1.28185e+06 -1.33133e+06  2.01936e+03  0.00000e+00 -4.74692e+04 -3.26818e+03 -5.07374e+04  6.97938e-01  1.00000e+00  5.04543e+01  0.00000e+00  5.91340e+01 
 8.80092e-03  7.52587e-03  0.00000e+00  3.47944e+00  3.75818e-04  3.60238e+02  3.60137e+02  6.96468e+00  7.01603e+00  7.00362e-01 -5.45144e+01  9.24148e+01  1.44001e+06 -1.49870e+06  2.09476e+03  0.00000e+00 -5.65962e+04 -3.69246e+03 -6.02886e+04  7.00365e-01  1.00000e+00  5.45062e+01  0.00000e+00  6.74055e+01 
 9.00573e-03  7.76439e-03 -1.17014e-20  3.47944e+00  3.56578e-04  3.60240e+02  3.60138e+02  6.78518e+00  6.83161e+00  7.02773e-01 -6.09211e+01  9.74036e+01  1.63421e+06 -1.70655e+06  2.14713e+03  0.00000e+00 -7.01978e+04 -4.33428e+03 -7.45321e+04  7.02773e-01  1.00000e+00  6.09125e+01  0.00000e+00  7.75473e+01 
 9.21216e-03  8.00291e-03  0.00000e+00  3.47944e+00  3.36040e-04  3.60243e+02  3.60139e+02  6.65694e+00  6.69859e+00  7.05382e-01 -7.07056e+01  1.03359e+02  1.88513e+06 -1.97637e+06  2.24342e+03  0.00000e+00 -8.90041e+04 -5.31821e+03 -9.43223e+04  7.05385e-01  1.00000e+00  7.06963e+01  0.00000e+00  9.07773e+01 
 9.42012e-03  8.24144e-03  0.00000e+00  3.47944e+00  3.14058e-04  3.60251e+02  3.60141e+02  6.42860e+00  6.46550e+00  7.07915e-01 -8.77364e+01  1.10596e+02  2.22074e+06 -2.33682e+06  2.30517e+03  0.00000e+00 -1.13768e+05 -7.03612e+03 -1.20805e+05  7.07919e-01  1.00000e+00  8.77265e+01  0.00000e+00  1.08496e+02 
 9.62949e-03  8.47996e-03  0.00000e+00  3.47944e+00  2.89651e-04  3.60265e+02  3.60142e+02  6.25171e+00  6.28326e+00  7.11112e-01 -1.18403e+02  1.19918e+02  2.70095e+06 -2.85321e+06  2.44070e+03  0.00000e+00 -1.49825e+05 -1.02495e+04 -1.60075e+05  7.11120e-01  1.00000e+00  1.18392e+02  0.00000e+00  1.34478e+02 
 9.84019e-03  8.71849e-03  0.00000e+00  3.47944e+00  2.62099e-04  3.60293e+02  3.60143e+02  5.92566e+00  5.95273e+00  7.13952e-01 -1.82580e+02  1.32528e+02  3.44331e+06 -3.66196e+06  2.54093e+03  0.00000e+00 -2.16113e+05 -1.73976e+04 -2.33510e+05  7.13964e-01  1.00000e+00  1.82568e+02  0.00000e+00  1.74011e+02 
 1.00521e-02  8.95702e-03  0.00000e+00  3.47944e+00  2.28877e-04  3.60353e+02  3.60145e+02  5.65019e+00  5.67210e+00  7.18817e-01 -3.42368e+02  1.51769e+02  4.78734e+06 -5.11146e+06  2.77496e+03  0.00000e+00 -3.21341e+05 -3.71069e+04 -3.58447e+05  7.18837e-01  1.00000e+00  3.42355e+02  0.00000e+00  2.49562e+02 
 1.02653e-02  9.19555e-03  0.00000e+00  3.47944e+00  1.88930e-04  3.60518e+02  3.60148e+02  5.04234e+00  5.06039e+00  7.22501e-01 -8.85200e+02  1.83868e+02  7.68211e+06 -8.22651e+06  2.97457e+03  0.00000e+00 -5.41426e+05 -1.15646e+05 -6.57072e+05  7.22514e-01  1.00000e+00  8.85185e+02  0.00000e+00  4.10474e+02 
 1.04795e-02  9.43408e-03  0.00000e+00  3.47944e+00  1.40293e-04  3.61205e+02  3.60150e+02  4.31012e+00  4.32303e+00  7.30817e-01 -8.76923e+03  2.47624e+02  1.69115e+07 -1.54273e+07  3.48228e+03  1.02496e+06  2.51270e+06 -2.55310e+06 -4.03924e+04  7.30834e-01  1.00000e+00  8.76922e+03  4.54964e+03  1.06403e+03 
