# Code_Saturne plot output (1D profile)
#
# Iteration output: 3954
# Time output:      2.30008e+01
#
#COLUMN_TITLES: Distance | X | Y | Z | diameter_Field2 | temp_Field1 | temp_Field2 | Velocity_Field1[Z] | Velocity_Field2[Z] | vol_f_Field2 | mass_trans_Field1 | Xd_Field2 | BK | COAL | COMP | NUCL | W1 | MT | SMBR | ALPBB | CONDNUM | GAMA | GAMANUC | epsilon_Field1
 4.56474e-03  1.39645e-04  0.00000e+00  3.47944e+00  1.93857e-05  3.59757e+02  3.60051e+02  4.51927e+00  4.52072e+00  3.30160e-02  3.32623e+02  1.79775e+03  2.60055e-94 -4.35990e+06  9.79804e+03  0.00000e+00 -4.35011e+06  1.14795e+07  7.12935e+06  3.30704e-02  1.00000e+00 -3.30613e+02  0.00000e+00  3.62665e-01 
 4.57812e-03  3.76525e-04  4.25872e-21  3.47944e+00  3.73981e-05  3.59752e+02  3.60051e+02  4.52012e+00  4.52426e+00  3.58849e-02  1.39191e+02  9.31881e+02  7.34635e-26 -1.57813e+06  5.08894e+03  0.00000e+00 -1.57304e+06  2.30547e+06  7.32431e+05  3.59043e-02  1.00000e+00 -1.38331e+02  0.00000e+00  3.65973e-01 
 4.60371e-03  6.13858e-04  0.00000e+00  3.47944e+00  5.52535e-05  3.59749e+02  3.60051e+02  4.51989e+00  4.52739e+00  3.78266e-02  8.52378e+01  6.30738e+02  1.29220e-09 -8.63536e+05  3.44985e+03  0.00000e+00 -8.60086e+05  9.07975e+05  4.78889e+04  3.78366e-02  1.00000e+00 -8.47112e+01  0.00000e+00  3.72246e-01 
 4.64138e-03  8.51483e-04  0.00000e+00  3.47944e+00  7.16417e-05  3.59747e+02  3.60051e+02  4.51896e+00  4.52993e+00  3.99018e-02  6.31276e+01  4.86456e+02  1.54403e-03 -5.90104e+05  2.66370e+03  0.00000e+00 -5.87441e+05  4.91935e+05 -9.55060e+04  3.99099e-02  1.00000e+00 -6.27379e+01  0.00000e+00  3.81691e-01 
 4.69084e-03  1.08931e-03  0.00000e+00  3.47944e+00  8.62745e-05  3.59748e+02  3.60051e+02  4.51740e+00  4.53151e+00  4.24703e-02  5.23418e+01  4.03949e+02  1.27280e+00 -4.62118e+05  2.21354e+03  0.00000e+00 -4.59903e+05  3.18295e+05 -1.41608e+05  4.24780e-02  1.00000e+00 -5.20177e+01  0.00000e+00  3.94614e-01 
 4.75174e-03  1.32727e-03  1.05001e-20  3.47944e+00  9.93946e-05  3.59750e+02  3.60051e+02  4.51522e+00  4.53215e+00  4.55426e-02  4.63253e+01  3.50628e+02  5.71351e+01 -3.94024e+05  1.92213e+03  0.00000e+00 -3.92045e+05  2.28040e+05 -1.64005e+05  4.55510e-02  1.00000e+00 -4.60360e+01  0.00000e+00  4.11356e-01 
 4.82366e-03  1.56534e-03  0.00000e+00  3.47944e+00  1.11393e-04  3.59755e+02  3.60051e+02  4.51240e+00  4.53189e+00  4.91647e-02  4.26977e+01  3.12862e+02  6.45860e+02 -3.55359e+05  1.71536e+03  0.00000e+00 -3.52998e+05  1.73722e+05 -1.79276e+05  4.91739e-02  1.00000e+00 -4.24273e+01  0.00000e+00  4.32390e-01 
 4.90611e-03  1.80349e-03  8.81027e-21  3.47944e+00  1.22484e-04  3.59761e+02  3.60051e+02  4.50891e+00  4.53074e+00  5.33887e-02  4.04478e+01  2.84532e+02  3.41542e+03 -3.33849e+05  1.55995e+03  0.00000e+00 -3.28874e+05  1.37814e+05 -1.91059e+05  5.33978e-02  1.00000e+00 -4.01865e+01  0.00000e+00  4.58266e-01 
 4.99859e-03  2.04170e-03  0.00000e+00  3.47944e+00  1.32649e-04  3.59769e+02  3.60051e+02  4.50472e+00  4.52864e+00  5.82695e-02  3.91305e+01  2.62727e+02  1.12631e+04 -3.24325e+05  1.44008e+03  0.00000e+00 -3.11622e+05  1.12783e+05 -1.98839e+05  5.82785e-02  1.00000e+00 -3.88709e+01  0.00000e+00  4.89722e-01 
 5.10055e-03  2.27996e-03  7.58893e-21  3.47944e+00  1.41723e-04  3.59778e+02  3.60051e+02  4.49977e+00  4.52552e+00  6.38776e-02  3.84723e+01  2.45906e+02  2.70722e+04 -3.24707e+05  1.34743e+03  0.00000e+00 -2.96287e+05  9.46569e+04 -2.01630e+05  6.38871e-02  1.00000e+00 -3.82085e+01  0.00000e+00  5.27637e-01 
 5.21143e-03  2.51826e-03  7.09702e-21  3.47944e+00  1.49523e-04  3.59790e+02  3.60051e+02  4.49403e+00  4.52155e+00  7.02681e-02  3.81720e+01  2.33078e+02  5.23270e+04 -3.34160e+05  1.27794e+03  0.00000e+00 -2.80555e+05  8.09027e+04 -1.99652e+05  7.02787e-02  1.00000e+00 -3.78998e+01  0.00000e+00  5.73099e-01 
 5.33068e-03  2.75659e-03  1.33300e-20  3.47944e+00  1.55955e-04  3.59802e+02  3.60051e+02  4.49301e+00  4.52376e+00  7.75199e-02  3.83809e+01  2.23465e+02  8.73818e+04 -3.52734e+05  1.21796e+03  0.00000e+00 -2.64134e+05  7.06730e+04 -1.93461e+05  7.75308e-02  1.00000e+00 -3.80941e+01  0.00000e+00  6.28359e-01 
 5.45775e-03  2.99495e-03  1.25651e-20  3.47944e+00  1.61057e-04  3.59816e+02  3.60051e+02  4.48507e+00  4.51675e+00  8.57056e-02  3.88562e+01  2.16386e+02  1.31907e+05 -3.80595e+05  1.17841e+03  0.00000e+00 -2.47510e+05  6.26414e+04 -1.84868e+05  8.57156e-02  1.00000e+00 -3.85497e+01  0.00000e+00  6.95127e-01 
 5.59212e-03  3.23333e-03  0.00000e+00  3.47944e+00  1.64973e-04  3.59832e+02  3.60051e+02  4.47598e+00  4.50819e+00  9.49191e-02  3.95420e+01  2.11249e+02  1.85115e+05 -4.18063e+05  1.14918e+03  0.00000e+00 -2.31799e+05  5.61656e+04 -1.75633e+05  9.49298e-02  1.00000e+00 -3.92101e+01  0.00000e+00  7.74354e-01 
 5.73326e-03  3.47172e-03  0.00000e+00  3.47944e+00  1.67909e-04  3.59848e+02  3.60051e+02  4.46553e+00  4.49802e+00  1.05166e-01  4.02841e+01  2.07557e+02  2.47191e+05 -4.65449e+05  1.12753e+03  0.00000e+00 -2.17131e+05  5.07112e+04 -1.66420e+05  1.05178e-01  1.00000e+00 -3.99214e+01  0.00000e+00  8.68589e-01 
 5.88069e-03  3.71014e-03 -5.35987e-21  3.47944e+00  1.70089e-04  3.59865e+02  3.60051e+02  4.45351e+00  4.48598e+00  1.16483e-01  4.09464e+01  2.04896e+02  3.18624e+05 -5.23273e+05  1.11137e+03  0.00000e+00 -2.03537e+05  4.59073e+04 -1.57630e+05  1.16495e-01  1.00000e+00 -4.05477e+01  0.00000e+00  9.80612e-01 
 6.03395e-03  3.94857e-03  5.10973e-21  3.47944e+00  1.71731e-04  3.59882e+02  3.60051e+02  4.43967e+00  4.47192e+00  1.28871e-01  4.13945e+01  2.02937e+02  3.99971e+05 -5.91952e+05  1.09871e+03  0.00000e+00 -1.90882e+05  4.15110e+04 -1.49371e+05  1.28883e-01  1.00000e+00 -4.09546e+01  0.00000e+00  1.11359e+00 
 6.19261e-03  4.18701e-03  0.00000e+00  3.47944e+00  1.73028e-04  3.59899e+02  3.60051e+02  4.42377e+00  4.45567e+00  1.42277e-01  4.14984e+01  2.01416e+02  4.91567e+05 -6.71607e+05  1.08803e+03  0.00000e+00 -1.78952e+05  3.73714e+04 -1.41581e+05  1.42290e-01  1.00000e+00 -4.10129e+01  0.00000e+00  1.27107e+00 
 6.35626e-03  4.42546e-03  0.00000e+00  3.47944e+00  1.74150e-04  3.59916e+02  3.60051e+02  4.40552e+00  4.43697e+00  1.56667e-01  4.11588e+01  2.00119e+02  5.93313e+05 -7.62239e+05  1.07800e+03  0.00000e+00 -1.67848e+05  3.34004e+04 -1.34448e+05  1.56681e-01  1.00000e+00 -4.06237e+01  0.00000e+00  1.45696e+00 
 6.52453e-03  4.66392e-03 -8.96437e-21  3.47944e+00  1.75232e-04  3.59933e+02  3.60051e+02  4.38457e+00  4.41551e+00  1.71872e-01  4.02836e+01  1.98883e+02  7.04712e+05 -8.63024e+05  1.06758e+03  0.00000e+00 -1.57244e+05  2.95665e+04 -1.27678e+05  1.71887e-01  1.00000e+00 -3.96961e+01  0.00000e+00  1.67593e+00 
 6.69707e-03  4.90238e-03  1.72236e-20  3.47944e+00  1.76387e-04  3.59948e+02  3.60051e+02  4.36061e+00  4.39100e+00  1.87771e-01  3.88317e+01  1.97581e+02  8.23962e+05 -9.72801e+05  1.05622e+03  0.00000e+00 -1.47783e+05  2.58651e+04 -1.21918e+05  1.87791e-01  1.00000e+00 -3.81898e+01  0.00000e+00  1.93171e+00 
 6.87356e-03  5.14086e-03  8.28595e-21  3.47944e+00  1.77679e-04  3.59964e+02  3.60051e+02  4.33332e+00  4.36314e+00  2.04064e-01  3.67840e+01  1.96144e+02  9.49730e+05 -1.08954e+06  1.04312e+03  0.00000e+00 -1.38769e+05  2.23263e+04 -1.16442e+05  2.04085e-01  1.00000e+00 -3.60875e+01  0.00000e+00  2.22995e+00 
 7.05370e-03  5.37934e-03 -1.59677e-20  3.47944e+00  1.79150e-04  3.59978e+02  3.60051e+02  4.30238e+00  4.33165e+00  2.20504e-01  3.41906e+01  1.94534e+02  1.07927e+06 -1.21086e+06  1.02860e+03  0.00000e+00 -1.30560e+05  1.89885e+04 -1.11571e+05  2.20532e-01  1.00000e+00 -3.34405e+01  0.00000e+00  2.57430e+00 
 7.23722e-03  5.61783e-03  0.00000e+00  3.47944e+00  1.80797e-04  3.59991e+02  3.60051e+02  4.26754e+00  4.29624e+00  2.36894e-01  3.11338e+01  1.92762e+02  1.21066e+06 -1.33494e+06  1.01229e+03  0.00000e+00 -1.23272e+05  1.58858e+04 -1.07386e+05  2.36925e-01  1.00000e+00 -3.03321e+01  0.00000e+00  2.97024e+00 
 7.42387e-03  5.85632e-03  0.00000e+00  3.47944e+00  1.82587e-04  3.60003e+02  3.60051e+02  4.22860e+00  4.25674e+00  2.53075e-01  2.77430e+01  1.90874e+02  1.34241e+06 -1.46044e+06  9.94630e+02  0.00000e+00 -1.17042e+05  1.30550e+04 -1.03987e+05  2.53101e-01  1.00000e+00 -2.68924e+01  0.00000e+00  3.42430e+00 
 7.61342e-03  6.09482e-03  0.00000e+00  3.47944e+00  1.84440e-04  3.60014e+02  3.60051e+02  4.18541e+00  4.21298e+00  2.68912e-01  2.41326e+01  1.88956e+02  1.47372e+06 -1.58699e+06  9.75656e+02  0.00000e+00 -1.12295e+05  1.05092e+04 -1.01786e+05  2.68931e-01  1.00000e+00 -2.32358e+01  0.00000e+00  3.94417e+00 
 7.80566e-03  6.33332e-03  0.00000e+00  3.47944e+00  1.86254e-04  3.60024e+02  3.60051e+02  4.13782e+00  4.16484e+00  2.84211e-01  2.04119e+01  1.87116e+02  1.60404e+06 -1.71424e+06  9.56363e+02  0.00000e+00 -1.09238e+05  8.25168e+03 -1.00987e+05  2.84224e-01  1.00000e+00 -1.94714e+01  0.00000e+00  4.53616e+00 
 8.00039e-03  6.57182e-03  0.00000e+00  3.47944e+00  1.87877e-04  3.60033e+02  3.60051e+02  4.08571e+00  4.11215e+00  2.98900e-01  1.66746e+01  1.85501e+02  1.73568e+06 -1.84452e+06  9.37112e+02  0.00000e+00 -1.07900e+05  6.26877e+03 -1.01631e+05  2.98912e-01  1.00000e+00 -1.56923e+01  0.00000e+00  5.21525e+00 
 8.19744e-03  6.81033e-03  1.31016e-20  3.47944e+00  1.89160e-04  3.60041e+02  3.60052e+02  4.02873e+00  4.05456e+00  3.12885e-01  1.29819e+01  1.84244e+02  1.87109e+06 -1.98036e+06  9.18807e+02  0.00000e+00 -1.08347e+05  4.53270e+03 -1.03814e+05  3.12894e-01  1.00000e+00 -1.19582e+01  0.00000e+00  5.99643e+00 
 8.39664e-03  7.04884e-03  0.00000e+00  3.47944e+00  1.89909e-04  3.60049e+02  3.60052e+02  3.96664e+00  3.99178e+00  3.26258e-01  9.36121e+00  1.83518e+02  2.01561e+06 -2.12813e+06  9.01761e+02  0.00000e+00 -1.11620e+05  3.00329e+03 -1.08617e+05  3.26276e-01  1.00000e+00 -8.29479e+00  0.00000e+00  6.90886e+00 
 8.59784e-03  7.28736e-03  0.00000e+00  3.47944e+00  1.89950e-04  3.60056e+02  3.60052e+02  3.89837e+00  3.92274e+00  3.38936e-01  5.78767e+00  1.83479e+02  2.17510e+06 -2.29350e+06  8.86909e+02  0.00000e+00 -1.17516e+05  1.62916e+03 -1.15887e+05  3.38952e-01  1.00000e+00 -4.67538e+00  0.00000e+00  7.98446e+00 
 8.80092e-03  7.52587e-03  0.00000e+00  3.47944e+00  1.89055e-04  3.60062e+02  3.60052e+02  3.82396e+00  3.84742e+00  3.51086e-01  2.19432e+00  1.84348e+02  2.36060e+06 -2.48883e+06  8.74411e+02  0.00000e+00 -1.27352e+05  3.48085e+02 -1.27003e+05  3.51107e-01  1.00000e+00 -1.02988e+00  0.00000e+00  9.28930e+00 
 9.00573e-03  7.76439e-03 -1.17014e-20  3.47944e+00  1.87053e-04  3.60067e+02  3.60053e+02  3.73980e+00  3.76224e+00  3.62707e-01 -3.66161e+00  1.86323e+02  2.58311e+06 -2.72626e+06  8.65010e+02  0.00000e+00 -1.42279e+05 -2.03559e+03 -1.44314e+05  3.62739e-01  1.00000e+00  6.15642e+00  0.00000e+00  1.08961e+01 
 9.21216e-03  8.00291e-03  0.00000e+00  3.47944e+00  1.83606e-04  3.60073e+02  3.60053e+02  3.64838e+00  3.66957e+00  3.74034e-01 -1.32567e+01  1.89822e+02  2.86796e+06 -3.03368e+06  8.59516e+02  0.00000e+00 -1.64861e+05 -5.19119e+03 -1.70053e+05  3.74069e-01  1.00000e+00  1.58921e+01  0.00000e+00  1.29719e+01 
 9.42012e-03  8.24144e-03  0.00000e+00  3.47944e+00  1.78439e-04  3.60081e+02  3.60053e+02  3.53824e+00  3.55803e+00  3.85091e-01 -2.63511e+01  1.95321e+02  3.24542e+06 -3.44611e+06  8.57617e+02  0.00000e+00 -1.99830e+05 -9.52066e+03 -2.09350e+05  3.85132e-01  1.00000e+00  2.91633e+01  0.00000e+00  1.57291e+01 
 9.62949e-03  8.47996e-03  0.00000e+00  3.47944e+00  1.71076e-04  3.60091e+02  3.60054e+02  3.41667e+00  3.43435e+00  3.96104e-01 -4.75260e+01  2.03728e+02  3.78571e+06 -4.03892e+06  8.63404e+02  0.00000e+00 -2.52343e+05 -1.67417e+04 -2.69084e+05  3.96145e-01  1.00000e+00  5.05721e+01  0.00000e+00  1.96786e+01 
 9.84019e-03  8.71849e-03  0.00000e+00  3.47944e+00  1.61151e-04  3.60108e+02  3.60054e+02  3.25478e+00  3.27062e+00  4.06958e-01 -8.85471e+01  2.16278e+02  4.59391e+06 -4.93017e+06  8.73239e+02  0.00000e+00 -3.35378e+05 -3.14382e+04 -3.66817e+05  4.07000e-01  1.00000e+00  9.19068e+01  0.00000e+00  2.55983e+01 
 1.00521e-02  8.95702e-03  0.00000e+00  3.47944e+00  1.47768e-04  3.60142e+02  3.60055e+02  3.07517e+00  3.08927e+00  4.17930e-01 -1.87036e+02  2.35868e+02  6.01411e+06 -6.45007e+06  8.93638e+02  0.00000e+00 -4.35068e+05 -6.93354e+04 -5.04404e+05  4.17942e-01  1.00000e+00  1.90855e+02  0.00000e+00  3.63280e+01 
 1.02653e-02  9.19555e-03  0.00000e+00  3.47944e+00  1.30831e-04  3.60233e+02  3.60055e+02  2.78383e+00  2.79626e+00  4.29213e-01 -5.02495e+02  2.66406e+02  8.85228e+06 -9.29440e+06  9.05738e+02  0.00000e+00 -4.41222e+05 -2.02546e+05 -6.43768e+05  4.29265e-01  1.00000e+00  5.06992e+02  0.00000e+00  5.99997e+01 
 1.04795e-02  9.43408e-03  0.00000e+00  3.47944e+00  1.11858e-04  3.60611e+02  3.60056e+02  2.33611e+00  2.34412e+00  4.44259e-01 -5.40824e+03  3.11599e+02  1.64674e+07 -1.52327e+07  9.21827e+02  2.64960e+06  3.88520e+06 -3.97100e+06 -8.58014e+04  4.44295e-01  1.00000e+00  5.41373e+03  3.26603e+03  1.50822e+02 
